<?xml version="1.0" encoding="UTF-8"?>

<!-- generated on Wed Oct  2 22:33:17 2019 by Eclipse SUMO polyconvert Version 1.1.0
<configuration xmlns:xsi="http://www.w3.org/2001/XMLSchema-instance" xsi:noNamespaceSchemaLocation="http://sumo.dlr.de/xsd/polyconvertConfiguration.xsd">

    <input>
        <net-file value="osm.net.xml"/>
        <osm-files value="osm_bbox.osm.xml"/>
        <osm.keep-full-type value="true"/>
        <type-file value="/home/xiyu/Documents/sumo/data/typemap/osmPolyconvert.typ.xml"/>
    </input>

    <output>
        <output-file value="osm.poly.xml"/>
    </output>

    <processing>
        <poi-layer-offset value="5"/>
    </processing>

    <report>
        <verbose value="true"/>
    </report>

</configuration>
-->

<additional xmlns:xsi="http://www.w3.org/2001/XMLSchema-instance" xsi:noNamespaceSchemaLocation="http://sumo.dlr.de/xsd/additional_file.xsd">
    <location netOffset="-377171.43,-3739420.05" convBoundary="0.00,-9781.47,215354.50,119849.14" origBoundary="115.663022,33.705795,119.157985,34.875788" projParameter="+proj=utm +zone=50 +ellps=WGS84 +datum=WGS84 +units=m +no_defs"/>

    <poly id="136205807" type="waterway.river" color="181,209,209" fill="0" layer="-4.00" shape="141112.543365,59003.950069 140930.811376,58215.140831 140908.909808,58103.737197 140760.723013,57350.125585 140676.325095,57088.587713 140551.945713,56514.336941 140549.783831,56504.342183 140453.916398,56061.700200 140386.075847,55753.780715 140347.021049,55576.492703 140299.863799,55380.794130 140272.024783,55321.729762 140225.463628,55269.183902 140143.089142,55198.808351 139878.159393,55033.027359 139667.068691,54908.455298 139434.350476,54764.833088"/>
    <poly id="136210897" type="waterway.drain" color="181,209,209" fill="0" layer="-4.00" shape="140683.026617,50130.748813 140664.744644,50181.265628 140638.015169,50258.134439 140559.569887,50483.721655 140548.312361,50511.110687 140530.720074,50538.487768 140511.456504,50563.533182 140484.971880,50584.972417 140456.752828,50613.183426 140438.624360,50637.044676"/>
    <poly id="136210901" type="waterway.drain" color="181,209,209" fill="0" layer="-4.00" shape="138702.786756,49939.938485 138708.271913,49936.233195 138724.754302,49925.549834 138766.775784,49901.304544"/>
    <poly id="136210902" type="waterway.river" color="181,209,209" fill="0" layer="-4.00" shape="139385.599010,49968.186014 139584.396867,49915.304268 140661.220021,50126.948370 140683.026617,50130.748813 140792.001580,49982.861502 140806.336484,49964.815033 140908.958595,49851.889441 140948.427493,49807.922874 141103.591423,49692.883442 141128.988564,49669.192910 141183.732894,49523.433243 141181.962841,49472.700781 141175.771502,49450.755999 141159.565672,49402.889361 141164.543354,49357.969288 141212.931940,49200.111170 141231.199986,49116.918221 141237.170288,49068.551690 141274.961519,48976.349130 141326.831580,48862.252927 141349.914482,48794.715322 141434.662885,48472.368973 141461.129541,48389.880280 141492.185452,48357.153948 141568.291817,48340.340598 141594.601518,48332.476156 141630.343749,48305.414684 141686.891579,48204.890887 141736.933137,48074.959275 141758.724551,47978.901052 141767.549208,47795.740423 141759.372493,47657.774623 141745.522261,47542.417505 141742.804125,47492.658926 141765.591171,47369.458702 141816.227168,46975.738874 141859.508088,46595.243990 141918.650817,46253.169287 141924.127030,46128.748008 141909.941144,46015.175435 141884.725980,45952.475588 141858.323579,45870.867942 141842.649323,45736.513127 141833.606574,45611.763121 141784.930001,45373.411615 141732.364752,45083.869327 141664.198637,44647.055561 141660.223411,44621.600103 141656.461587,44508.060194 141684.610522,44383.385204 141698.089313,44287.476951 141669.677939,43881.258410 141634.428638,43566.171618 141594.994253,43439.809144 141436.709962,43163.165163 141183.227187,42733.830561 141065.438866,42562.055835 141003.434126,42282.480121 140963.558233,42062.435710 140962.449498,41915.792379 141030.845489,41766.500261 141112.867516,41687.234807 141187.492603,41653.916116 141328.096627,41640.198447 141409.360095,41624.813072 141509.465765,41556.586295 141570.538130,41480.520969 141592.486517,41437.032563 141627.004179,41362.466998 141634.888397,41323.607622 141628.788642,41253.617955 141584.028214,40978.309071 141430.523711,40397.971270 141407.295421,40295.293375 141507.711603,40077.776320 141529.684524,40028.056345 141664.278353,39911.688602 141823.825079,39815.586834 141981.776020,39739.709303 142014.684789,39694.669759 142061.776050,39584.350108 142086.989492,39480.206348 142074.756499,39349.540767 142042.163533,39243.715428 142004.937681,39108.330883 141960.202689,38825.170724 141960.386086,38734.958024 141998.130472,38616.835318 142035.768208,38546.912670 142175.958119,38004.358269 142171.370657,37953.021913 142154.325170,37884.551007 142095.916373,37406.877108 142055.535512,37287.020760 141980.918569,37089.300741 141967.157217,36941.490470 141914.871137,36524.460621 141882.631676,36233.476964 141889.330983,36012.571375 141896.134492,35740.317144 141896.502925,35558.284811 141888.786085,35511.588369 141842.141679,35387.030413 141826.631976,35326.314070 141822.119449,35240.727188 141833.208079,35166.071352 141850.747599,34998.066974 141851.005163,34870.477046 141846.433145,34809.782807 141795.503286,34484.467153 141775.465792,34344.384610 141788.126196,34268.168559 141819.635640,34143.746344 141881.094816,33901.108441 141899.931810,33863.801962 141916.406300,33781.584118 141914.903395,33348.437475 141927.753232,33266.411955 142026.404111,33083.570863"/>
    <poly id="136998291" type="amenity.school" color="237,199,199" fill="1" layer="-1.00" shape="139916.616210,45437.142364 139856.638218,45114.066619 140046.749805,45077.600363 140081.274162,45256.328323 140064.095434,45259.623244 140092.969927,45409.101267 139916.616210,45437.142364"/>
    <poly id="154376399" type="building.yes" color="255,230,230" fill="1" layer="-1.00" shape="143604.079402,47434.933436 143647.078278,47416.832853 143658.078492,47403.207580 143666.798397,47383.667196 143672.787802,47361.847656 143768.744246,47366.607499 143761.346706,47404.346624 143747.572234,47435.252238 143731.512533,47462.504735 143703.584476,47487.923456 143674.747658,47507.873713 143645.021330,47517.809358 143619.881783,47523.663679 143604.079402,47434.933436"/>
    <poly id="154376400" type="building.yes" color="255,230,230" fill="1" layer="-1.00" shape="143079.521373,47980.894027 143075.270342,48047.292654 143088.459745,48076.893614 143116.743548,48098.332975 143207.207490,48101.256773 143208.203274,48062.594042 143213.722117,48048.956339 143217.418053,48030.768475 143213.339677,48013.029426 143205.152614,47995.724986 143194.666608,47985.234865 143113.336014,47983.240180 143113.352725,47975.511674 143097.819174,47973.659620 143083.644185,47978.175207 143079.521373,47980.894027"/>
    <poly id="154376401" type="building.yes" color="255,230,230" fill="1" layer="-1.00" shape="146391.623442,58607.455880 146448.629786,58729.384735 146886.778666,58526.396068 146829.776721,58404.475641 146391.623442,58607.455880"/>
    <poly id="154376402" type="landuse.railway" color="194,194,130" fill="1" layer="-3.00" shape="143939.940641,59144.689147 143605.860342,58719.484631 143023.127925,57766.163242 142798.524291,57623.981541 142881.600324,57450.924474 142312.120619,56197.459500 141299.598423,54359.953791 141348.365597,54352.765071 141478.455433,54518.029637 141607.990264,54352.073653 141596.208124,54150.640581 141627.926906,54136.145171 141838.503144,54283.380627 142394.057970,55470.352247 142885.203450,56306.882504 143653.096210,58188.573952 144031.790960,59113.860398 143939.940641,59144.689147"/>
    <poly id="154376404" type="landuse.forest" color="140,196,107" fill="1" layer="-3.00" shape="145390.629025,54005.008994 145500.019257,54131.459410 145621.675616,54227.614179 145672.841910,54242.297987 145730.246209,54193.904225 145779.059421,54169.762300 145812.256101,54054.568536 145970.607026,54098.646983 146176.435077,54167.096785 146232.779057,54054.401681 146001.415041,53960.395157 146043.147605,53845.234439 145978.752118,53760.137738 145826.646798,53651.772856 145751.074391,53652.796185 145680.465956,53615.011714 145590.396593,53558.973290 145493.980055,53607.273377 145637.483440,53745.949747 145597.070730,53819.866537 145514.285094,53778.416703 145526.539422,53750.536872 145441.345910,53695.731413 145381.422011,53776.876014 145382.596495,53797.514373 145415.473018,53809.724345 145398.168217,53909.178927 145449.306873,53932.355148 145390.629025,54005.008994"/>
    <poly id="154376405" type="landuse.forest" color="140,196,107" fill="1" layer="-3.00" shape="144575.687354,54161.944212 144755.939033,54225.457711 144838.552829,54339.706988 145104.037908,54437.391854 145184.704976,54342.955596 145153.432669,54168.160808 145095.228408,54039.407701 145084.645761,53879.720526 145048.197883,53828.671637 145098.356070,53749.918962 145161.697976,53770.705355 145295.898455,53721.272721 145336.195002,53691.031614 145348.834552,53506.628544 145302.664538,53440.996244 145043.244486,53348.155014 144954.140126,53395.269352 144885.985860,53349.003011 144906.900533,53266.532442 144896.085516,53199.765894 144770.552038,53189.768589 144668.104566,53211.373256 144539.766014,53359.104906 144175.038471,53465.047636 144025.146467,53445.291371 143883.554759,53528.700388 143860.103154,53654.844689 143907.472561,53731.394602 144185.282655,53784.195044 144252.423960,53738.242864 144571.388491,53912.489433 144575.687354,54161.944212"/>
    <poly id="154376408" type="landuse.industrial" color="209,209,204" fill="1" layer="-3.00" shape="144155.051812,56536.017287 145736.807663,56652.981353 146156.498539,56976.515536 146833.947396,57568.314269 147334.751379,58471.806675 146210.099202,58973.164502 144858.818073,59192.827114 144807.680286,59032.300594 144451.712645,57922.700098 144155.051812,56536.017287"/>
    <poly id="154376462" type="natural.water" color="181,209,209" fill="1" layer="-4.00" shape="138261.289042,46038.306796 138500.483143,46074.717632 138548.442437,46013.224873 138529.860964,45958.595333 138507.736467,45923.708052 138471.655329,45866.720900 138464.686966,45846.961158 138429.690725,45835.282476 138382.980175,45849.142873 138353.826286,45836.320980 138345.624345,45854.891287 138350.200806,45911.825810 138311.650401,45932.674550 138259.137886,45929.106389 138183.278039,45927.817746 138164.591807,45935.914873 138182.077708,45946.399652 138239.260666,45949.986136 138268.378047,45984.884278 138261.289042,46038.306796"/>
    <poly id="154376463" type="man_made.wastewater_plant" color="255,230,230" fill="1" layer="-1.00" shape="145545.140113,57166.952042 145556.557555,56724.405961 145745.222778,56741.166315 145899.179447,56854.769071 145937.822835,56908.033656 145905.260799,57183.279915 145545.140113,57166.952042"/>
    <poly id="154376467" type="leisure.pitch" color="207,245,201" fill="1" layer="-2.00" shape="138730.178711,54258.756797 138746.028976,54052.429264 138796.072295,54057.659480 138790.456873,54128.360402 138988.684957,54149.912512 138975.868414,54275.244389 138744.083300,54249.455109 138743.089097,54260.386549 138730.178711,54258.756797"/>
    <poly id="164722033" type="building.residential" color="255,230,230" fill="1" layer="-1.00" shape="139956.790796,45054.217111 139954.046301,45038.522269 140000.070709,45030.556262 140002.815129,45046.251118 139956.790796,45054.217111"/>
    <poly id="164792065" type="building.residential" color="255,230,230" fill="1" layer="-1.00" shape="139892.687638,45068.903190 139888.998395,45050.844859 139945.476581,45039.404791 139949.165720,45057.463145 139892.687638,45068.903190"/>
    <poly id="164792100" type="building.residential" color="255,230,230" fill="1" layer="-1.00" shape="139833.767339,45080.849209 139830.306947,45063.545315 139883.383662,45053.052305 139886.843960,45070.356219 139833.767339,45080.849209"/>
    <poly id="164792414" type="building.residential" color="255,230,230" fill="1" layer="-1.00" shape="139827.628984,45051.698245 139824.486409,45036.945221 139855.278904,45030.447860 139858.421453,45045.189807 139827.628984,45051.698245"/>
    <poly id="164792429" type="building.residential" color="255,230,230" fill="1" layer="-1.00" shape="139772.496893,45093.345769 139768.835028,45075.309711 139825.211353,45063.990709 139828.863901,45082.026771 139772.496893,45093.345769"/>
    <poly id="164792469" type="building.residential" color="255,230,230" fill="1" layer="-1.00" shape="139767.697397,45062.445321 139764.161452,45046.094903 139815.875749,45035.000290 139819.411608,45051.350727 139767.697397,45062.445321"/>
    <poly id="164794266" type="building.public" color="255,230,230" fill="1" layer="-1.00" shape="139697.089442,45108.345437 139692.506410,45085.029761 139721.509805,45079.382543 139723.700865,45090.530149 139764.593163,45082.575935 139766.985016,45094.744029 139697.089442,45108.345437"/>
    <poly id="164794344" type="building.residential" color="255,230,230" fill="1" layer="-1.00" shape="139691.549873,45068.739444 139688.464698,45052.689247 139742.683422,45042.363816 139744.207710,45050.294641 139760.096387,45047.274013 139762.569952,45060.118635 139746.478531,45063.183246 139745.574956,45058.458035 139691.549873,45068.739444"/>
    <poly id="164794463" type="building.yes" color="255,230,230" fill="1" layer="-1.00" shape="139642.941114,45079.596360 139638.518149,45059.418965 139677.402915,45050.995073 139681.816587,45071.172469 139642.941114,45079.596360"/>
    <poly id="164794483" type="building.yes" color="255,230,230" fill="1" layer="-1.00" shape="139647.946413,45119.267895 139643.678251,45100.121979 139672.102308,45093.830455 139668.318554,45076.869777 139681.701117,45073.911052 139689.762122,45110.028776 139647.946413,45119.267895"/>
    <poly id="164794593" type="building.yes" color="255,230,230" fill="1" layer="-1.00" shape="139589.813744,45087.739934 139586.003921,45069.814568 139633.017132,45059.897002 139636.836083,45077.822403 139589.813744,45087.739934"/>
    <poly id="164794768" type="building.yes" color="255,230,230" fill="1" layer="-1.00" shape="139597.682040,45128.780404 139594.057339,45110.389658 139638.479320,45101.698287 139642.113170,45120.077978 139597.682040,45128.780404"/>
    <poly id="164794982" type="building.office" color="255,230,230" fill="1" layer="-1.00" shape="139524.684402,45146.336048 139519.313815,45120.113944 139536.216450,45116.684476 139541.586992,45142.906590 139524.684402,45146.336048"/>
    <poly id="164795060" type="building.yes" color="255,230,230" fill="1" layer="-1.00" shape="139545.545184,45139.620434 139542.263332,45125.244256 139583.157636,45115.991934 139586.439429,45130.368126 139545.545184,45139.620434"/>
    <poly id="164795070" type="building.yes" color="255,230,230" fill="1" layer="-1.00" shape="139536.504496,45104.953650 139533.624773,45092.385571 139579.367278,45081.988683 139582.246944,45094.556776 139536.504496,45104.953650"/>
    <poly id="164795353" type="amenity.school" color="237,199,199" fill="1" layer="-1.00" shape="139523.024706,45079.737236 139671.040425,45048.932338 139637.881372,44874.721339 139555.993934,44890.619782 139559.462096,44909.054579 139493.262189,44921.377857 139523.024706,45079.737236"/>
    <poly id="164795391" type="leisure.playground" color="207,245,201" fill="1" layer="-2.00" shape="139619.043653,45058.419450 139599.772748,45056.910281 139582.981459,45049.495553 139559.997452,44913.668232 139572.382919,44896.481390 139592.169242,44888.145082 139617.382536,44884.752774 139637.118313,44899.546495 139659.607667,45038.322589 139648.217704,45050.100050 139633.852431,45056.472236 139619.043653,45058.419450"/>
    <poly id="164828899" type="amenity.hospital" color="237,199,199" fill="1" layer="-1.00" shape="139813.601641,45166.602304 139857.655050,45157.911303 139859.946627,45169.413948 139815.893270,45178.104939 139813.601641,45166.602304"/>
    <poly id="164828923" type="amenity.hospital" color="237,199,199" fill="1" layer="-1.00" shape="139810.232872,45149.575787 139807.961298,45137.163956 139832.475733,45132.717582 139834.747275,45145.129419 139810.232872,45149.575787"/>
    <poly id="164829040" type="building.yes" color="255,230,230" fill="1" layer="-1.00" shape="139770.178920,45178.111059 139767.171851,45164.821941 139804.628224,45156.440352 139807.626009,45169.740554 139770.178920,45178.111059"/>
    <poly id="164829319" type="building.yes" color="255,230,230" fill="1" layer="-1.00" shape="139773.155316,45213.498955 139770.572934,45199.722720 139781.134426,45197.756989 139781.782271,45201.228773 139810.425501,45195.891651 139811.648250,45202.402650 139782.442877,45207.838548 139783.154630,45211.632006 139773.155316,45213.498955"/>
    <poly id="164829320" type="building.yes" color="255,230,230" fill="1" layer="-1.00" shape="139709.442558,45211.654441 139705.581485,45191.644344 139693.185911,45194.017131 139697.047009,45214.027223 139709.442558,45211.654441"/>
    <poly id="164830714" type="leisure.playground" color="207,245,201" fill="1" layer="-2.00" shape="139719.818205,45225.921468 139716.774569,45212.443800 139740.940412,45207.031886 139743.984015,45220.509562 139719.818205,45225.921468"/>
    <poly id="164830715" type="building.yes" color="255,230,230" fill="1" layer="-1.00" shape="139797.216691,45250.621431 139792.192966,45226.639610 139812.846670,45222.363624 139817.870365,45246.334368 139797.216691,45250.621431"/>
    <poly id="164830889" type="building.yes" color="255,230,230" fill="1" layer="-1.00" shape="139820.171745,45201.519923 139818.209663,45191.193235 139863.441905,45182.670717 139865.403919,45193.008503 139820.171745,45201.519923"/>
    <poly id="164830970" type="building.yes" color="255,230,230" fill="1" layer="-1.00" shape="139825.514589,45227.309717 139823.103840,45215.463128 139867.996000,45206.441047 139871.337991,45222.924216 139860.121876,45225.176953 139859.181362,45220.540368 139825.514589,45227.309717"/>
    <poly id="164832465" type="building.yes" color="255,230,230" fill="1" layer="-1.00" shape="139692.216598,45189.979276 139691.388085,45184.489117 139703.607671,45182.648247 139704.436156,45188.149495 139692.216598,45189.979276"/>
    <poly id="164832466" type="building.yes" color="255,230,230" fill="1" layer="-1.00" shape="139682.883830,45184.917379 139680.591025,45173.980275 139688.811981,45172.276357 139691.104797,45183.202375 139682.883830,45184.917379"/>
    <poly id="164832565" type="building.yes" color="255,230,230" fill="1" layer="-1.00" shape="139704.419867,45268.982626 139698.686860,45239.688321 139726.823419,45234.239152 139729.534695,45248.093226 139734.658801,45247.104509 139738.438112,45266.427003 139724.844489,45269.063708 139723.265204,45260.988638 139714.334896,45262.713427 139715.156508,45266.906253 139704.419867,45268.982626"/>
    <poly id="164832853" type="amenity.school" color="237,199,199" fill="1" layer="-1.00" shape="139726.893002,45154.614736 139674.574703,45163.879196 139697.836015,45292.788306 139878.468228,45258.718866 139862.005180,45172.245179 139811.399951,45181.778102 139803.056009,45139.383821 139726.893002,45154.614736"/>
    <poly id="164832880" type="building.yes" color="255,230,230" fill="1" layer="-1.00" shape="139747.973115,45281.901166 139746.192789,45272.927583 139801.074450,45262.149070 139802.854746,45271.111575 139747.973115,45281.901166"/>
    <poly id="164832881" type="building.yes" color="255,230,230" fill="1" layer="-1.00" shape="139828.438475,45255.955898 139826.422623,45244.808581 139872.464858,45236.553691 139875.073551,45250.973121 139854.918557,45254.595669 139854.325657,45251.323567 139828.438475,45255.955898"/>
    <poly id="164832975" type="building.yes" color="255,230,230" fill="1" layer="-1.00" shape="139888.753898,45165.141831 139882.044902,45130.733971 139869.861099,45133.106910 139877.201296,45170.010758 139879.918921,45175.182805 139884.050943,45177.696248 139889.052275,45178.392803 139953.815237,45165.226992 139951.589214,45153.203296 139888.753898,45165.141831"/>
    <poly id="164833085" type="leisure.recreation_ground" color="207,245,201" fill="1" layer="-2.00" shape="139966.996646,45146.267997 139961.222147,45119.922925 139990.853538,45113.479332 139996.637172,45139.824439 139966.996646,45146.267997"/>
    <poly id="164833086" type="leisure.recreation_ground" color="207,245,201" fill="1" layer="-2.00" shape="140011.993827,45135.494855 140005.591406,45110.002399 140038.450556,45101.835098 140044.843680,45127.327559 140011.993827,45135.494855"/>
    <poly id="164833206" type="building.school" color="255,230,230" fill="1" layer="-1.00" shape="139970.052708,45167.895615 139966.336562,45149.537819 139975.498036,45147.436692 139976.658799,45152.517219 140040.106878,45138.118808 140038.504029,45132.982021 140046.558707,45131.577493 140050.285767,45148.926313 140042.718757,45150.675467 140041.714831,45145.495425 139978.589109,45159.972032 139979.389129,45165.839164 139970.052708,45167.895615"/>
    <poly id="164835361" type="leisure.playground" color="207,245,201" fill="1" layer="-2.00" shape="139944.631032,45351.658788 139931.280962,45352.122345 139913.998597,45346.679827 139902.645339,45338.298652 139881.131168,45212.818444 139887.077371,45200.521314 139897.477225,45191.192837 139911.332807,45181.382776 139928.141533,45178.951783 139939.991305,45182.909688 139955.292540,45193.759691 139959.729780,45200.653574 139978.284739,45326.627530 139970.849641,45336.948183 139962.431492,45345.792314 139944.631032,45351.658788"/>
    <poly id="164835363" type="amenity.school" color="237,199,199" fill="1" layer="-1.00" shape="139992.170089,45250.066510 139988.496558,45233.638131 140061.224568,45217.538151 140064.888766,45233.966541 139992.170089,45250.066510"/>
    <poly id="164835485" type="amenity.school" color="237,199,199" fill="1" layer="-1.00" shape="139935.948046,45430.036745 139931.725402,45401.476862 139992.499242,45392.561936 139996.721706,45421.121848 139935.948046,45430.036745"/>
    <poly id="164835681" type="amenity.school" color="237,199,199" fill="1" layer="-1.00" shape="140014.317464,45406.240367 140011.306980,45390.012777 140082.508170,45376.937258 140085.509322,45393.164854 140014.317464,45406.240367"/>
    <poly id="164835768" type="amenity.school" color="237,199,199" fill="1" layer="-1.00" shape="140008.430028,45371.290581 140005.558910,45354.409044 140076.592536,45342.419819 140079.463530,45359.301378 140008.430028,45371.290581"/>
    <poly id="164835836" type="amenity.school" color="237,199,199" fill="1" layer="-1.00" shape="140067.521309,45305.490446 140068.606366,45311.624229 140037.199216,45317.121821 140036.123352,45310.988059 140067.521309,45305.490446"/>
    <poly id="164835898" type="amenity.school" color="237,199,199" fill="1" layer="-1.00" shape="140035.737303,45305.476502 140034.917321,45300.474208 140066.600255,45295.331938 140067.420222,45300.334234 140035.737303,45305.476502"/>
    <poly id="164836357" type="building.school" color="255,230,230" fill="1" layer="-1.00" shape="140034.261338,45296.470155 140033.267734,45290.691368 140065.402716,45285.228363 140066.396301,45291.007154 140034.261338,45296.470155"/>
    <poly id="164836802" type="building.school" color="255,230,230" fill="1" layer="-1.00" shape="139542.876884,45236.027786 139539.485120,45221.307676 139611.217946,45204.925239 139614.609623,45219.634286 139542.876884,45236.027786"/>
    <poly id="164836814" type="amenity.school" color="237,199,199" fill="1" layer="-1.00" shape="139635.033492,45256.228695 139632.403883,45242.995736 139645.969938,45240.325584 139646.974329,45245.361437 139674.622542,45239.922325 139673.097750,45232.257626 139684.774510,45229.972229 139687.915267,45245.822941 139635.033492,45256.228695"/>
    <poly id="164836857" type="amenity.school" color="237,199,199" fill="1" layer="-1.00" shape="139609.999224,45180.617674 139674.574703,45163.879196 139697.836015,45292.788306 139592.459945,45313.645042 139593.304018,45320.765190 139548.065653,45328.069290 139538.270294,45215.417668 139613.920321,45198.088635 139609.999224,45180.617674"/>
    <poly id="164837060" type="amenity.college" color="237,199,199" fill="1" layer="-1.00" shape="139642.185789,45300.771812 139640.405187,45291.898043 139690.688114,45281.853565 139692.468670,45290.727343 139642.185789,45300.771812"/>
    <poly id="164837061" type="amenity.school" color="237,199,199" fill="1" layer="-1.00" shape="139633.376926,45301.587660 139631.605093,45292.957850 139594.454888,45300.531233 139596.226774,45309.149948 139633.376926,45301.587660"/>
    <poly id="164837098" type="amenity.school" color="237,199,199" fill="1" layer="-1.00" shape="139551.645811,45324.915521 139548.848823,45307.324615 139584.069900,45301.765666 139585.226917,45309.052695 139589.521255,45308.383977 139591.161157,45318.687866 139551.645811,45324.915521"/>
    <poly id="164837323" type="building.residential" color="255,230,230" fill="1" layer="-1.00" shape="139551.985501,45201.426568 139550.276464,45193.695033 139607.796461,45181.112708 139609.505473,45188.833165 139551.985501,45201.426568"/>
    <poly id="164837324" type="leisure.playground" color="207,245,201" fill="1" layer="-2.00" shape="139591.376899,45285.567722 139585.490850,45254.077746 139620.548005,45247.576141 139626.433940,45279.066140 139591.376899,45285.567722"/>
    <poly id="164839770" type="building.yes" color="255,230,230" fill="1" layer="-1.00" shape="139857.945442,45028.257227 139855.474412,45014.081998 139934.141767,45000.475563 139936.612663,45014.661901 139857.945442,45028.257227"/>
    <poly id="164839771" type="amenity.school" color="237,199,199" fill="1" layer="-1.00" shape="139998.987421,45013.334270 139945.668628,45025.023716 139941.134010,45026.013392 139939.175862,45018.636155 139858.738870,45032.727220 139855.474412,45014.081998 139817.754522,45020.101118 139679.107176,45045.941901 139677.180309,45046.692443 139667.698225,44996.368175 139664.528754,44981.049659 139660.283778,44959.231520 139653.825959,44928.062050 139643.880923,44878.879073 139698.753697,44869.131144 139689.611857,44813.995191 139775.986456,44798.427565 139805.013644,44953.426776 139844.910371,44946.147491 139970.480853,44923.245825 139979.427061,44938.242346 140007.211556,44984.819312 140008.074945,44986.262360 139998.525902,44993.651830 139998.987421,45013.334270"/>
    <poly id="164841517" type="building.yes" color="255,230,230" fill="1" layer="-1.00" shape="139947.273757,45018.839413 139943.362859,45001.124392 139990.331365,44990.864795 139994.232965,45008.579819 139947.273757,45018.839413"/>
    <poly id="164842084" type="building.yes" color="255,230,230" fill="1" layer="-1.00" shape="139939.646471,44977.776911 139934.506315,44947.019906 139979.427061,44938.242346 140007.211556,44984.819312 139996.945800,44991.165179 139982.052782,44963.472848 139952.266971,44968.452543 139953.488520,44975.584498 139939.646471,44977.776911"/>
    <poly id="164842152" type="building.yes" color="255,230,230" fill="1" layer="-1.00" shape="139817.677296,45011.862429 139816.334856,45005.295773 139833.320766,45001.844813 139830.425710,44987.768617 139841.116817,44985.592511 139845.354258,45006.246458 139817.677296,45011.862429"/>
    <poly id="164842171" type="building.yes" color="255,230,230" fill="1" layer="-1.00" shape="139811.727058,45016.187161 139809.554471,45005.061745 139774.265331,45011.905964 139776.447172,45023.031388 139811.727058,45016.187161"/>
    <poly id="164842320" type="building.yes" color="255,230,230" fill="1" layer="-1.00" shape="139739.703010,45029.573728 139737.813348,45019.890308 139771.461913,45013.375639 139773.351541,45023.059066 139739.703010,45029.573728"/>
    <poly id="164842530" type="building.yes" color="255,230,230" fill="1" layer="-1.00" shape="139769.578350,44995.220822 139766.699623,44982.253498 139801.382209,44974.631979 139804.260910,44987.588225 139769.578350,44995.220822"/>
    <poly id="164843358" type="building.yes" color="255,230,230" fill="1" layer="-1.00" shape="139811.434974,44984.108406 139809.071009,44971.818382 139842.065267,44965.524547 139844.429190,44977.814580 139811.434974,44984.108406"/>
    <poly id="164843362" type="building.yes" color="255,230,230" fill="1" layer="-1.00" shape="139730.000548,44979.016147 139727.460131,44967.446561 139760.207074,44960.331465 139762.747454,44971.901060 139730.000548,44979.016147"/>
    <poly id="164843404" type="building.yes" color="255,230,230" fill="1" layer="-1.00" shape="139676.236442,45038.729406 139727.921637,45028.410433 139719.255777,44985.427984 139709.993299,44987.285239 139712.367579,44999.031933 139680.598761,45005.383863 139678.352351,44994.236170 139667.698225,44996.368175 139676.236442,45038.729406"/>
    <poly id="164843441" type="building.yes" color="255,230,230" fill="1" layer="-1.00" shape="139716.296533,44971.085592 139712.060884,44949.267446 139660.283778,44959.231520 139664.528754,44981.049659 139716.296533,44971.085592"/>
    <poly id="164843522" type="building.yes" color="255,230,230" fill="1" layer="-1.00" shape="139701.795800,44883.540206 139699.818001,44871.594640 139774.079760,44859.453682 139776.057467,44871.399263 139701.795800,44883.540206"/>
    <poly id="164999698" type="building.yes" color="255,230,230" fill="1" layer="-1.00" shape="139939.287150,45119.361785 139937.798657,45112.107374 139945.466677,45110.546820 139946.955165,45117.801232 139939.287150,45119.361785"/>
    <poly id="165000116" type="building.yes" color="255,230,230" fill="1" layer="-1.00" shape="140006.119863,45037.674877 140004.401327,45030.286976 140014.724352,45027.866453 140016.786828,45023.512556 140001.586098,44997.893127 140011.232385,44992.743659 140029.124102,45022.958557 140022.497931,45034.112265 140006.119863,45037.674877"/>