<?xml version="1.0" encoding="UTF-8"?>

<!-- generated on Sat Sep 28 17:40:50 2019 by Eclipse SUMO netconvert Version 1.1.0
<configuration xmlns:xsi="http://www.w3.org/2001/XMLSchema-instance" xsi:noNamespaceSchemaLocation="http://sumo.dlr.de/xsd/netconvertConfiguration.xsd">

    <input>
        <osm-files value="map.osm.xml"/>
    </input>

    <output>
        <output-file value="test.net.xml"/>
    </output>

    <projection>
        <proj.utm value="true"/>
    </projection>

</configuration>
-->

<net version="1.1" junctionCornerDetail="5" limitTurnSpeed="5.50" xmlns:xsi="http://www.w3.org/2001/XMLSchema-instance" xsi:noNamespaceSchemaLocation="http://sumo.dlr.de/xsd/net_file.xsd">

    <location netOffset="-552010.33,-4181232.46" convBoundary="0.00,0.00,810.47,555.20" origBoundary="-122.409388,37.776931,-122.400159,37.781929" projParameter="+proj=utm +zone=10 +ellps=WGS84 +datum=WGS84 +units=m +no_defs"/>

    <type id="highway.bridleway" priority="1" numLanes="1" speed="2.78" allow="pedestrian" oneway="1" width="2.00"/>
    <type id="highway.bus_guideway" priority="1" numLanes="1" speed="27.78" allow="bus" oneway="1"/>
    <type id="highway.cycleway" priority="1" numLanes="1" speed="8.33" allow="bicycle" oneway="0" width="1.00"/>
    <type id="highway.footway" priority="1" numLanes="1" speed="2.78" allow="pedestrian" oneway="1" width="2.00"/>
    <type id="highway.ford" priority="1" numLanes="1" speed="2.78" allow="army" oneway="0"/>
    <type id="highway.living_street" priority="3" numLanes="1" speed="2.78" disallow="tram rail_urban rail rail_electric ship" oneway="0"/>
    <type id="highway.motorway" priority="13" numLanes="2" speed="44.44" allow="private emergency authority army vip passenger hov taxi bus coach delivery truck trailer motorcycle evehicle custom1 custom2" oneway="1"/>
    <type id="highway.motorway_link" priority="12" numLanes="1" speed="22.22" allow="private emergency authority army vip passenger hov taxi bus coach delivery truck trailer motorcycle evehicle custom1 custom2" oneway="1"/>
    <type id="highway.path" priority="1" numLanes="1" speed="2.78" allow="bicycle pedestrian" oneway="1" width="2.00"/>
    <type id="highway.pedestrian" priority="1" numLanes="1" speed="2.78" allow="pedestrian" oneway="1" width="2.00"/>
    <type id="highway.primary" priority="9" numLanes="2" speed="27.78" disallow="tram rail_urban rail rail_electric ship" oneway="0"/>
    <type id="highway.primary_link" priority="8" numLanes="1" speed="22.22" disallow="tram rail_urban rail rail_electric ship" oneway="0"/>
    <type id="highway.raceway" priority="14" numLanes="2" speed="83.33" allow="vip" oneway="0"/>
    <type id="highway.residential" priority="4" numLanes="1" speed="13.89" disallow="tram rail_urban rail rail_electric ship" oneway="0"/>
    <type id="highway.secondary" priority="7" numLanes="2" speed="27.78" disallow="tram rail_urban rail rail_electric ship" oneway="0"/>
    <type id="highway.secondary_link" priority="6" numLanes="1" speed="22.22" disallow="tram rail_urban rail rail_electric ship" oneway="0"/>
    <type id="highway.service" priority="2" numLanes="1" speed="5.56" allow="delivery bicycle pedestrian" oneway="0"/>
    <type id="highway.stairs" priority="1" numLanes="1" speed="1.39" allow="pedestrian" oneway="1" width="2.00"/>
    <type id="highway.step" priority="1" numLanes="1" speed="1.39" allow="pedestrian" oneway="1" width="2.00"/>
    <type id="highway.steps" priority="1" numLanes="1" speed="1.39" allow="pedestrian" oneway="1" width="2.00"/>
    <type id="highway.tertiary" priority="6" numLanes="1" speed="22.22" disallow="tram rail_urban rail rail_electric ship" oneway="0"/>
    <type id="highway.tertiary_link" priority="5" numLanes="1" speed="22.22" disallow="tram rail_urban rail rail_electric ship" oneway="0"/>
    <type id="highway.track" priority="1" numLanes="1" speed="5.56" disallow="tram rail_urban rail rail_electric ship" oneway="0"/>
    <type id="highway.trunk" priority="11" numLanes="2" speed="27.78" disallow="tram rail_urban rail rail_electric bicycle pedestrian ship" oneway="0"/>
    <type id="highway.trunk_link" priority="10" numLanes="1" speed="22.22" disallow="tram rail_urban rail rail_electric bicycle pedestrian ship" oneway="0"/>
    <type id="highway.unclassified" priority="5" numLanes="1" speed="13.89" disallow="tram rail_urban rail rail_electric ship" oneway="0"/>
    <type id="highway.unsurfaced" priority="1" numLanes="1" speed="8.33" disallow="tram rail_urban rail rail_electric ship" oneway="0"/>
    <type id="railway.light_rail" priority="15" numLanes="1" speed="27.78" allow="rail_urban" oneway="1"/>
    <type id="railway.preserved" priority="15" numLanes="1" speed="27.78" allow="rail" oneway="1"/>
    <type id="railway.rail" priority="15" numLanes="1" speed="83.33" allow="rail rail_electric" oneway="1"/>
    <type id="railway.subway" priority="15" numLanes="1" speed="27.78" allow="rail_urban" oneway="1"/>
    <type id="railway.tram" priority="15" numLanes="1" speed="13.89" allow="tram" oneway="1"/>

    <edge id=":4179555574_0" function="internal">
        <lane id=":4179555574_0_0" index="0" disallow="tram rail_urban rail rail_electric ship" speed="11.18" length="2.45" shape="382.70,134.13 380.94,135.91"/>
        <lane id=":4179555574_0_1" index="1" disallow="tram rail_urban rail rail_electric ship" speed="11.18" length="2.45" shape="380.42,131.88 378.70,133.62"/>
        <lane id=":4179555574_0_2" index="2" disallow="tram rail_urban rail rail_electric ship" speed="11.18" length="2.45" shape="378.14,129.64 376.46,131.34"/>
    </edge>
    <edge id=":4179555574_3" function="internal">
        <lane id=":4179555574_3_0" index="0" disallow="tram rail_urban rail rail_electric ship" speed="3.91" length="2.85" shape="378.14,129.64 376.93,130.91 375.89,131.22"/>
    </edge>
    <edge id=":4179555574_8" function="internal">
        <lane id=":4179555574_8_0" index="0" disallow="tram rail_urban rail rail_electric ship" speed="3.91" length="2.85" shape="375.89,131.22 375.01,130.58 374.30,128.97"/>
    </edge>
    <edge id=":4179555574_4" function="internal">
        <lane id=":4179555574_4_0" index="0" disallow="tram rail_urban rail rail_electric ship" speed="11.18" length="0.10" shape="369.74,124.48 369.75,124.48"/>
        <lane id=":4179555574_4_1" index="1" disallow="tram rail_urban rail rail_electric ship" speed="11.18" length="0.10" shape="371.98,126.77 372.02,126.72"/>
        <lane id=":4179555574_4_2" index="2" disallow="tram rail_urban rail rail_electric ship" speed="11.18" length="0.10" shape="374.22,129.05 374.30,128.97"/>
    </edge>
    <edge id=":4179555574_7" function="internal">
        <lane id=":4179555574_7_0" index="0" disallow="tram rail_urban rail rail_electric ship" speed="3.65" length="2.34" shape="374.22,129.05 375.64,128.78 376.48,129.08"/>
    </edge>
    <edge id=":4179555574_9" function="internal">
        <lane id=":4179555574_9_0" index="0" disallow="tram rail_urban rail rail_electric ship" speed="3.65" length="2.34" shape="376.48,129.08 376.76,129.93 376.46,131.34"/>
    </edge>
    <edge id=":5034115718_0" function="internal">
        <lane id=":5034115718_0_0" index="0" disallow="tram rail_urban rail rail_electric ship" speed="11.18" length="0.31" shape="166.95,287.56 166.81,287.41"/>
        <lane id=":5034115718_0_1" index="1" disallow="tram rail_urban rail rail_electric ship" speed="11.18" length="0.31" shape="169.27,285.36 169.08,285.16"/>
        <lane id=":5034115718_0_2" index="2" disallow="tram rail_urban rail rail_electric ship" speed="11.18" length="0.31" shape="171.59,283.15 171.35,282.90"/>
        <lane id=":5034115718_0_3" index="3" disallow="tram rail_urban rail rail_electric ship" speed="11.18" length="0.31" shape="173.90,280.94 173.62,280.65"/>
    </edge>
    <edge id=":5034115719_0" function="internal">
        <lane id=":5034115719_0_0" index="0" disallow="tram rail_urban rail rail_electric ship" speed="11.18" length="0.17" shape="223.63,291.79 223.56,291.86"/>
        <lane id=":5034115719_0_1" index="1" disallow="tram rail_urban rail rail_electric ship" speed="11.18" length="0.17" shape="221.40,289.50 221.28,289.62"/>
        <lane id=":5034115719_0_2" index="2" disallow="tram rail_urban rail rail_electric ship" speed="11.18" length="0.17" shape="219.17,287.20 219.00,287.37"/>
    </edge>
    <edge id=":5034115719_3" function="internal">
        <lane id=":5034115719_3_0" index="0" disallow="tram rail_urban rail rail_electric ship" speed="3.65" length="2.34" shape="219.17,287.20 217.75,287.46 216.91,287.17"/>
    </edge>
    <edge id=":5034115719_8" function="internal">
        <lane id=":5034115719_8_0" index="0" disallow="tram rail_urban rail rail_electric ship" speed="3.65" length="2.34" shape="216.91,287.17 216.64,286.32 216.94,284.91"/>
    </edge>
    <edge id=":5034115719_4" function="internal">
        <lane id=":5034115719_4_0" index="0" disallow="tram rail_urban rail rail_electric ship" speed="11.18" length="0.38" shape="212.16,280.64 212.49,280.31"/>
        <lane id=":5034115719_4_1" index="1" disallow="tram rail_urban rail rail_electric ship" speed="11.18" length="0.38" shape="214.44,282.88 214.71,282.61"/>
        <lane id=":5034115719_4_2" index="2" disallow="tram rail_urban rail rail_electric ship" speed="11.18" length="0.38" shape="216.72,285.13 216.94,284.91"/>
    </edge>
    <edge id=":5034115719_7" function="internal">
        <lane id=":5034115719_7_0" index="0" disallow="tram rail_urban rail rail_electric ship" speed="3.65" length="2.34" shape="216.72,285.13 218.13,284.83 218.99,285.11"/>
    </edge>
    <edge id=":5034115719_9" function="internal">
        <lane id=":5034115719_9_0" index="0" disallow="tram rail_urban rail rail_electric ship" speed="3.65" length="2.34" shape="218.99,285.11 219.27,285.95 219.00,287.37"/>
    </edge>
    <edge id=":539989856_0" function="internal">
        <lane id=":539989856_0_0" index="0" disallow="tram rail_urban rail rail_electric ship" speed="6.51" length="9.02" shape="291.61,128.35 293.59,129.84 295.56,130.34 297.54,129.85 299.53,128.38"/>
    </edge>
    <edge id=":539989856_1" function="internal">
        <lane id=":539989856_1_0" index="0" disallow="tram rail_urban rail rail_electric ship" speed="11.18" length="11.18" shape="291.61,128.35 299.49,136.29"/>
        <lane id=":539989856_1_1" index="1" disallow="tram rail_urban rail rail_electric ship" speed="11.18" length="11.18" shape="289.34,130.60 297.22,138.54"/>
        <lane id=":539989856_1_2" index="2" disallow="tram rail_urban rail rail_electric ship" speed="11.18" length="11.18" shape="287.07,132.86 294.95,140.79"/>
        <lane id=":539989856_1_3" index="3" disallow="tram rail_urban rail rail_electric ship" speed="11.18" length="11.18" shape="284.80,135.11 292.68,143.05"/>
    </edge>
    <edge id=":5437055114_0" function="internal">
        <lane id=":5437055114_0_0" index="0" allow="delivery bicycle pedestrian" speed="3.65" length="4.67" shape="462.66,101.62 464.08,101.35 464.93,101.65 465.20,102.50 464.89,103.91"/>
    </edge>
    <edge id=":5437055115_0" function="internal">
        <lane id=":5437055115_0_0" index="0" disallow="tram rail_urban rail rail_electric ship" speed="5.02" length="5.02" shape="453.31,115.15 452.47,116.24 452.18,117.33 452.45,118.43 453.28,119.53"/>
    </edge>
    <edge id=":5437055115_1" function="internal">
        <lane id=":5437055115_1_0" index="0" allow="delivery bicycle pedestrian" speed="3.65" length="4.67" shape="453.31,115.15 451.89,115.41 451.05,115.11 450.78,114.26 451.08,112.85"/>
    </edge>
    <edge id=":5437055115_2" function="internal">
        <lane id=":5437055115_2_0" index="0" allow="delivery bicycle pedestrian" speed="5.12" length="5.08" shape="446.60,112.94 447.70,113.73 448.82,113.98 449.94,113.69 451.08,112.85"/>
    </edge>
    <edge id=":5437055115_3" function="internal">
        <lane id=":5437055115_3_0" index="0" disallow="tram rail_urban rail rail_electric ship" speed="13.89" length="9.38" shape="446.60,112.94 453.28,119.53"/>
    </edge>
    <edge id=":5437055118_0" function="internal">
        <lane id=":5437055118_0_0" index="0" disallow="tram rail_urban rail rail_electric ship" speed="3.65" length="4.67" shape="428.19,75.72 429.60,75.46 430.45,75.76 430.72,76.61 430.41,78.02"/>
    </edge>
    <edge id=":5437055223_0" function="internal">
        <lane id=":5437055223_0_0" index="0" allow="delivery bicycle pedestrian" speed="3.65" length="4.67" shape="484.39,265.14 484.64,266.57 484.33,267.41 483.48,267.67 482.07,267.35"/>
    </edge>
    <edge id=":5437055224_0" function="internal">
        <lane id=":5437055224_0_0" index="0" allow="delivery bicycle pedestrian" speed="5.56" length="0.29" shape="473.00,257.79 472.80,257.58"/>
    </edge>
    <edge id=":5437055224_1" function="internal">
        <lane id=":5437055224_1_0" index="0" allow="delivery bicycle pedestrian" speed="3.65" length="2.34" shape="473.00,257.79 472.76,256.37 473.06,255.53"/>
    </edge>
    <edge id=":5437055224_4" function="internal">
        <lane id=":5437055224_4_0" index="0" allow="delivery bicycle pedestrian" speed="3.65" length="2.34" shape="473.06,255.53 473.92,255.27 475.33,255.59"/>
    </edge>
    <edge id=":5437055224_2" function="internal">
        <lane id=":5437055224_2_0" index="0" allow="delivery bicycle pedestrian" speed="5.56" length="0.31" shape="475.11,255.36 475.33,255.59"/>
    </edge>
    <edge id=":5437055224_3" function="internal">
        <lane id=":5437055224_3_0" index="0" allow="delivery bicycle pedestrian" speed="3.65" length="2.34" shape="475.11,255.36 475.37,256.78 475.07,257.63"/>
    </edge>
    <edge id=":5437055224_5" function="internal">
        <lane id=":5437055224_5_0" index="0" allow="delivery bicycle pedestrian" speed="3.65" length="2.34" shape="475.07,257.63 474.21,257.89 472.80,257.58"/>
    </edge>
    <edge id=":5437055225_0" function="internal">
        <lane id=":5437055225_0_0" index="0" disallow="tram rail_urban rail rail_electric ship" speed="5.02" length="5.02" shape="468.06,252.63 466.97,251.78 465.88,251.49 464.78,251.75 463.67,252.58"/>
    </edge>
    <edge id=":5437055225_1" function="internal">
        <lane id=":5437055225_1_0" index="0" disallow="tram rail_urban rail rail_electric ship" speed="6.90" length="10.18" shape="468.06,252.63 466.42,250.35 465.88,248.10 466.45,245.87 468.13,243.67"/>
    </edge>
    <edge id=":5437055225_2" function="internal">
        <lane id=":5437055225_2_0" index="0" allow="delivery bicycle pedestrian" speed="3.65" length="4.67" shape="468.06,252.63 467.81,251.21 468.11,250.37 468.96,250.10 470.37,250.41"/>
    </edge>
    <edge id=":5437055225_3" function="internal">
        <lane id=":5437055225_3_0" index="0" allow="delivery bicycle pedestrian" speed="5.09" length="5.07" shape="470.37,245.96 469.54,247.05 469.27,248.15 469.54,249.27 470.37,250.41"/>
    </edge>
    <edge id=":5437055225_4" function="internal">
        <lane id=":5437055225_4_0" index="0" disallow="tram rail_urban rail rail_electric ship" speed="13.89" length="9.41" shape="470.37,245.96 463.67,252.58"/>
    </edge>
    <edge id=":5437055225_5" function="internal">
        <lane id=":5437055225_5_0" index="0" disallow="tram rail_urban rail rail_electric ship" speed="3.65" length="2.34" shape="470.37,245.96 468.95,246.23 468.11,245.94"/>
    </edge>
    <edge id=":5437055225_9" function="internal">
        <lane id=":5437055225_9_0" index="0" disallow="tram rail_urban rail rail_electric ship" speed="3.65" length="2.34" shape="468.11,245.94 467.83,245.09 468.13,243.67"/>
    </edge>
    <edge id=":5437055225_6" function="internal">
        <lane id=":5437055225_6_0" index="0" disallow="tram rail_urban rail rail_electric ship" speed="13.89" length="9.44" shape="461.41,250.31 468.13,243.67"/>
    </edge>
    <edge id=":5437055225_7" function="internal">
        <lane id=":5437055225_7_0" index="0" allow="delivery bicycle pedestrian" speed="6.85" length="5.13" shape="461.41,250.31 463.67,248.63 465.92,248.08"/>
    </edge>
    <edge id=":5437055225_8" function="internal">
        <lane id=":5437055225_8_0" index="0" disallow="tram rail_urban rail rail_electric ship" speed="3.65" length="2.34" shape="461.41,250.31 462.83,250.03 463.68,250.32"/>
    </edge>
    <edge id=":5437055225_10" function="internal">
        <lane id=":5437055225_10_0" index="0" allow="delivery bicycle pedestrian" speed="6.85" length="5.13" shape="465.92,248.08 468.15,248.68 470.37,250.41"/>
    </edge>
    <edge id=":5437055225_11" function="internal">
        <lane id=":5437055225_11_0" index="0" disallow="tram rail_urban rail rail_electric ship" speed="3.65" length="2.34" shape="463.68,250.32 463.96,251.16 463.67,252.58"/>
    </edge>
    <edge id=":5437074262_0" function="internal">
        <lane id=":5437074262_0_0" index="0" allow="delivery bicycle pedestrian" speed="3.65" length="4.67" shape="297.32,359.60 295.90,359.85 295.06,359.55 294.79,358.70 295.10,357.29"/>
    </edge>
    <edge id=":5437074263_0" function="internal">
        <lane id=":5437074263_0_0" index="0" allow="delivery bicycle pedestrian" speed="5.56" length="0.31" shape="311.47,346.04 311.24,346.26"/>
    </edge>
    <edge id=":5437074263_1" function="internal">
        <lane id=":5437074263_1_0" index="0" allow="delivery bicycle pedestrian" speed="3.65" length="2.34" shape="311.47,346.04 310.05,346.33 309.20,346.04"/>
    </edge>
    <edge id=":5437074263_4" function="internal">
        <lane id=":5437074263_4_0" index="0" allow="delivery bicycle pedestrian" speed="3.65" length="2.34" shape="309.20,346.04 308.92,345.20 309.20,343.78"/>
    </edge>
    <edge id=":5437074263_2" function="internal">
        <lane id=":5437074263_2_0" index="0" allow="delivery bicycle pedestrian" speed="5.56" length="0.24" shape="309.03,343.95 309.20,343.78"/>
    </edge>
    <edge id=":5437074263_3" function="internal">
        <lane id=":5437074263_3_0" index="0" allow="delivery bicycle pedestrian" speed="3.65" length="2.34" shape="309.03,343.95 310.45,343.70 311.29,344.00"/>
    </edge>
    <edge id=":5437074263_5" function="internal">
        <lane id=":5437074263_5_0" index="0" allow="delivery bicycle pedestrian" speed="3.65" length="2.34" shape="311.29,344.00 311.56,344.85 311.24,346.26"/>
    </edge>
    <edge id=":5437074264_0" function="internal">
        <lane id=":5437074264_0_0" index="0" allow="delivery bicycle pedestrian" speed="5.04" length="5.00" shape="319.93,341.96 318.83,341.13 317.73,340.86 316.64,341.14 315.54,341.96"/>
    </edge>
    <edge id=":5437074264_1" function="internal">
        <lane id=":5437074264_1_0" index="0" allow="delivery bicycle pedestrian" speed="5.56" length="9.39" shape="319.93,341.96 313.30,335.30"/>
    </edge>
    <edge id=":5437074264_2" function="internal">
        <lane id=":5437074264_2_0" index="0" allow="delivery bicycle pedestrian" speed="5.05" length="5.01" shape="313.28,339.70 314.10,338.60 314.38,337.50 314.12,336.40 313.30,335.30"/>
    </edge>
    <edge id=":5437074264_3" function="internal">
        <lane id=":5437074264_3_0" index="0" allow="delivery bicycle pedestrian" speed="3.65" length="4.67" shape="313.28,339.70 314.69,339.41 315.54,339.70 315.83,340.54 315.54,341.96"/>
    </edge>
    <edge id=":5437074271_0" function="internal">
        <lane id=":5437074271_0_0" index="0" disallow="tram rail_urban rail rail_electric ship" speed="5.04" length="5.01" shape="356.86,191.96 356.02,193.05 355.73,194.14 355.99,195.24 356.81,196.35"/>
    </edge>
    <edge id=":5437074271_1" function="internal">
        <lane id=":5437074271_1_0" index="0" allow="delivery bicycle pedestrian" speed="3.65" length="4.67" shape="356.86,191.96 355.44,192.23 354.60,191.93 354.33,191.08 354.63,189.67"/>
    </edge>
    <edge id=":5437074271_2" function="internal">
        <lane id=":5437074271_2_0" index="0" allow="delivery bicycle pedestrian" speed="5.07" length="5.03" shape="350.21,189.67 351.30,190.49 352.40,190.76 353.51,190.49 354.63,189.67"/>
    </edge>
    <edge id=":5437074271_3" function="internal">
        <lane id=":5437074271_3_0" index="0" disallow="tram rail_urban rail rail_electric ship" speed="11.18" length="9.36" shape="350.21,189.67 356.81,196.35"/>
        <lane id=":5437074271_3_1" index="1" disallow="tram rail_urban rail rail_electric ship" speed="11.18" length="9.36" shape="347.94,191.93 354.52,198.59"/>
        <lane id=":5437074271_3_2" index="2" disallow="tram rail_urban rail rail_electric ship" speed="11.18" length="9.36" shape="345.67,194.18 352.24,200.83"/>
    </edge>
    <edge id=":5437074272_0" function="internal">
        <lane id=":5437074272_0_0" index="0" allow="delivery bicycle pedestrian" speed="3.65" length="4.67" shape="411.20,135.64 411.47,137.06 411.18,137.90 410.33,138.18 408.92,137.88"/>
    </edge>
    <edge id=":5437074273_0" function="internal">
        <lane id=":5437074273_0_0" index="0" allow="delivery bicycle pedestrian" speed="5.56" length="0.29" shape="399.75,128.53 399.55,128.33"/>
    </edge>
    <edge id=":5437074273_1" function="internal">
        <lane id=":5437074273_1_0" index="0" allow="delivery bicycle pedestrian" speed="3.65" length="2.34" shape="399.75,128.53 399.48,127.11 399.77,126.27"/>
    </edge>
    <edge id=":5437074273_4" function="internal">
        <lane id=":5437074273_4_0" index="0" allow="delivery bicycle pedestrian" speed="3.65" length="2.34" shape="399.77,126.27 400.62,125.99 402.03,126.29"/>
    </edge>
    <edge id=":5437074273_2" function="internal">
        <lane id=":5437074273_2_0" index="0" allow="delivery bicycle pedestrian" speed="5.56" length="0.31" shape="401.82,126.07 402.03,126.29"/>
    </edge>
    <edge id=":5437074273_3" function="internal">
        <lane id=":5437074273_3_0" index="0" allow="delivery bicycle pedestrian" speed="3.65" length="2.34" shape="401.82,126.07 402.10,127.49 401.81,128.34"/>
    </edge>
    <edge id=":5437074273_5" function="internal">
        <lane id=":5437074273_5_0" index="0" allow="delivery bicycle pedestrian" speed="3.65" length="2.34" shape="401.81,128.34 400.96,128.61 399.55,128.33"/>
    </edge>
    <edge id=":5437074274_0" function="internal">
        <lane id=":5437074274_0_0" index="0" disallow="tram rail_urban rail rail_electric ship" speed="5.06" length="5.01" shape="396.40,125.15 395.30,124.32 394.20,124.03 393.10,124.28 391.99,125.08"/>
    </edge>
    <edge id=":5437074274_1" function="internal">
        <lane id=":5437074274_1_0" index="0" disallow="tram rail_urban rail rail_electric ship" speed="8.37" length="18.53" shape="396.40,125.15 391.78,119.94 389.11,115.59 388.39,112.10 389.62,109.47"/>
    </edge>
    <edge id=":5437074274_2" function="internal">
        <lane id=":5437074274_2_0" index="0" disallow="tram rail_urban rail rail_electric ship" speed="8.37" length="15.63" shape="396.40,125.15 392.77,120.93 390.80,117.29 390.51,114.22 391.88,111.73"/>
    </edge>
    <edge id=":5437074274_3" function="internal">
        <lane id=":5437074274_3_0" index="0" allow="delivery bicycle pedestrian" speed="3.65" length="4.67" shape="396.40,125.15 396.12,123.73 396.41,122.89 397.25,122.61 398.67,122.90"/>
    </edge>
    <edge id=":5437074274_4" function="internal">
        <lane id=":5437074274_4_0" index="0" allow="delivery bicycle pedestrian" speed="5.05" length="4.99" shape="398.68,118.51 397.86,119.61 397.58,120.70 397.85,121.80 398.67,122.90"/>
    </edge>
    <edge id=":5437074274_5" function="internal">
        <lane id=":5437074274_5_0" index="0" disallow="tram rail_urban rail rail_electric ship" speed="11.18" length="9.31" shape="398.68,118.51 391.99,125.08"/>
        <lane id=":5437074274_5_1" index="1" disallow="tram rail_urban rail rail_electric ship" speed="11.18" length="9.31" shape="396.41,116.25 389.77,122.78"/>
        <lane id=":5437074274_5_2" index="2" disallow="tram rail_urban rail rail_electric ship" speed="11.18" length="9.31" shape="394.15,113.99 387.55,120.47"/>
    </edge>
    <edge id=":5437074274_8" function="internal">
        <lane id=":5437074274_8_0" index="0" disallow="tram rail_urban rail rail_electric ship" speed="3.65" length="2.34" shape="394.15,113.99 392.73,114.27 391.89,113.99"/>
    </edge>
    <edge id=":5437074274_14" function="internal">
        <lane id=":5437074274_14_0" index="0" disallow="tram rail_urban rail rail_electric ship" speed="3.65" length="2.34" shape="391.89,113.99 391.60,113.14 391.88,111.73"/>
    </edge>
    <edge id=":5437074274_9" function="internal">
        <lane id=":5437074274_9_0" index="0" disallow="tram rail_urban rail rail_electric ship" speed="11.18" length="9.14" shape="380.88,113.57 387.36,107.20"/>
        <lane id=":5437074274_9_1" index="1" disallow="tram rail_urban rail rail_electric ship" speed="11.18" length="9.14" shape="383.11,115.87 389.62,109.47"/>
        <lane id=":5437074274_9_2" index="2" disallow="tram rail_urban rail rail_electric ship" speed="11.18" length="9.14" shape="385.33,118.17 391.88,111.73"/>
    </edge>
    <edge id=":5437074274_12" function="internal">
        <lane id=":5437074274_12_0" index="0" allow="delivery bicycle pedestrian" speed="8.37" length="3.82" shape="385.33,118.17 387.82,116.87 388.82,116.98"/>
    </edge>
    <edge id=":5437074274_13" function="internal">
        <lane id=":5437074274_13_0" index="0" disallow="tram rail_urban rail rail_electric ship" speed="3.65" length="2.34" shape="385.33,118.17 386.75,117.91 387.59,118.21"/>
    </edge>
    <edge id=":5437074274_15" function="internal">
        <lane id=":5437074274_15_0" index="0" allow="delivery bicycle pedestrian" speed="8.37" length="11.76" shape="388.82,116.98 390.87,117.22 394.49,119.23 398.67,122.90"/>
    </edge>
    <edge id=":5437074274_16" function="internal">
        <lane id=":5437074274_16_0" index="0" disallow="tram rail_urban rail rail_electric ship" speed="3.65" length="2.34" shape="387.59,118.21 387.86,119.07 387.55,120.47"/>
    </edge>
    <edge id=":5437074284_0" function="internal">
        <lane id=":5437074284_0_0" index="0" allow="delivery bicycle pedestrian" speed="3.65" length="4.67" shape="189.95,102.75 189.67,101.34 189.95,100.49 190.79,100.21 192.21,100.48"/>
    </edge>
    <edge id=":5437074285_0" function="internal">
        <lane id=":5437074285_0_0" index="0" disallow="tram rail_urban rail rail_electric ship" speed="13.89" length="9.41" shape="203.75,107.62 197.08,114.25"/>
    </edge>
    <edge id=":5437074285_1" function="internal">
        <lane id=":5437074285_1_0" index="0" allow="delivery bicycle pedestrian" speed="6.87" length="5.07" shape="203.75,107.62 201.52,109.28 199.29,109.83"/>
    </edge>
    <edge id=":5437074285_2" function="internal">
        <lane id=":5437074285_2_0" index="0" disallow="tram rail_urban rail rail_electric ship" speed="3.65" length="2.34" shape="203.75,107.62 202.33,107.90 201.48,107.61"/>
    </edge>
    <edge id=":5437074285_9" function="internal">
        <lane id=":5437074285_9_0" index="0" allow="delivery bicycle pedestrian" speed="6.87" length="5.09" shape="199.29,109.83 197.06,109.27 194.82,107.60"/>
    </edge>
    <edge id=":5437074285_10" function="internal">
        <lane id=":5437074285_10_0" index="0" disallow="tram rail_urban rail rail_electric ship" speed="3.65" length="2.34" shape="201.48,107.61 201.20,106.76 201.49,105.35"/>
    </edge>
    <edge id=":5437074285_3" function="internal">
        <lane id=":5437074285_3_0" index="0" disallow="tram rail_urban rail rail_electric ship" speed="5.06" length="5.02" shape="197.08,105.33 198.19,106.16 199.29,106.44 200.39,106.17 201.49,105.35"/>
    </edge>
    <edge id=":5437074285_4" function="internal">
        <lane id=":5437074285_4_0" index="0" disallow="tram rail_urban rail rail_electric ship" speed="6.86" length="10.19" shape="197.08,105.33 198.76,107.56 199.32,109.79 198.76,112.02 197.08,114.25"/>
    </edge>
    <edge id=":5437074285_5" function="internal">
        <lane id=":5437074285_5_0" index="0" allow="delivery bicycle pedestrian" speed="3.65" length="4.67" shape="197.08,105.33 197.37,106.74 197.09,107.59 196.24,107.88 194.82,107.60"/>
    </edge>
    <edge id=":5437074285_6" function="internal">
        <lane id=":5437074285_6_0" index="0" allow="delivery bicycle pedestrian" speed="5.03" length="5.01" shape="194.82,111.98 195.65,110.89 195.93,109.79 195.65,108.70 194.82,107.60"/>
    </edge>
    <edge id=":5437074285_7" function="internal">
        <lane id=":5437074285_7_0" index="0" disallow="tram rail_urban rail rail_electric ship" speed="13.89" length="9.40" shape="194.82,111.98 201.49,105.35"/>
    </edge>
    <edge id=":5437074285_8" function="internal">
        <lane id=":5437074285_8_0" index="0" disallow="tram rail_urban rail rail_electric ship" speed="3.65" length="2.34" shape="194.82,111.98 196.24,111.71 197.08,111.99"/>
    </edge>
    <edge id=":5437074285_11" function="internal">
        <lane id=":5437074285_11_0" index="0" disallow="tram rail_urban rail rail_electric ship" speed="3.65" length="2.34" shape="197.08,111.99 197.36,112.84 197.08,114.25"/>
    </edge>
    <edge id=":5837961107_0" function="internal">
        <lane id=":5837961107_0_0" index="0" disallow="tram rail_urban rail rail_electric ship" speed="11.18" length="5.01" shape="318.51,155.44 322.04,159.01"/>
        <lane id=":5837961107_0_1" index="1" disallow="tram rail_urban rail rail_electric ship" speed="11.18" length="5.01" shape="316.24,157.70 319.77,161.26"/>
        <lane id=":5837961107_0_2" index="2" disallow="tram rail_urban rail rail_electric ship" speed="11.18" length="5.01" shape="313.97,159.95 317.49,163.51"/>
        <lane id=":5837961107_0_3" index="3" disallow="tram rail_urban rail rail_electric ship" speed="11.18" length="5.01" shape="311.70,162.21 315.22,165.76"/>
    </edge>
    <edge id=":5837961124_0" function="internal">
        <lane id=":5837961124_0_0" index="0" disallow="tram rail_urban rail rail_electric ship" speed="13.89" length="5.00" shape="245.70,167.35 242.12,170.84"/>
    </edge>