<edges>

<!--   <edge id="1fi" from="1" to="m1" priority="2" numLanes="2" speed="11.11"/> 
  <edge id="1si" from="m1" to="0" priority="3" numLanes="3" speed="13.89"/> -->

  <edge id="lt1" from="left" to="top" priority="1" numLanes="2" shape="-30.0,3.67394039744206e-15 -29.995430854691737,0.5235721931185031 -29.981724810572874,1.0469849010750343 -29.958886042637214,1.5700786872883141 -29.926921507794727,2.0926942123237655 -29.885840942752367,2.614672282429746 -29.8356568610482,3.135853898029612 -29.776384549239662,3.656080302154426 -29.708042062247106,4.1751930288019725 -29.630650217854132,4.693033951206929 -29.544232590366242,5.209445330007909 -29.44881550342992,5.724269861296349 -29.34442802201417,6.23735072453278 -29.231101943557057,6.748531630315956 -29.108871788279895,7.257656867990032 -28.97777478867205,7.76457135307563 -28.837850878149567,8.269120674509976 -28.689142678891063,8.771151141682111 -28.53169548885461,9.270509831248425 -28.3655572679795,9.767044633714711 -28.190778623577252,10.260604299770065 -28.007412794916057,10.751038486359006 -27.81551563700362,11.238197802477368 -27.61514560357321,11.721933854678213 -27.406363729278027,12.202099292274013 -27.189233611099503,12.678547852220985 -26.963821388975006,13.15113440367233 -26.730195725651036,13.619714992186406 -26.488427785767808,14.084146883576732 -26.238591214181877,14.544288607390115 -25.980762113533157,15.00000000000001 -25.71501902106337,15.45114224730163 -25.441442884692783,15.897577926996147 -25.16011703836272,16.33917105045082 -24.871127176651246,16.77578710412242 -24.574561328669756,17.20729309053139 -24.270509831248425,17.633557568774197 -23.959065301418786,18.054450694561456 -23.64032260820166,18.46984425976975 -23.314378843709125,18.87961173149513 -22.98133329356934,19.283628290596184 -22.641287406683162,19.68177086971522 -22.294344764321828,20.07391819076575 -21.94061104857511,20.459950801874964 -21.58019401015953,20.839751113769925 -21.21320343559643,21.213203435596427 -20.839751113769918,21.58019401015954 -20.459950801874957,21.940611048575118 -20.073918190765745,22.294344764321835 -19.68177086971522,22.641287406683162 -19.283628290596184,22.98133329356935 -18.879611731495135,23.31437884370913 -18.469844259769744,23.64032260820166 -18.05445069456145,23.959065301418793 -17.633557568774197,24.270509831248425 -17.20729309053139,24.574561328669752 -16.775787104122397,24.871127176651253 -16.33917105045081,25.160117038362728 -15.897577926996151,25.441442884692783 -15.451142247301634,25.71501902106337 -14.999999999999988,25.98076211353316 -14.544288607390104,26.23859121418188 -14.084146883576722,26.48842778576781 -13.619714992186408,26.730195725651036 -13.151134403672332,26.963821388975013 -12.678547852220975,27.189233611099503 -12.202099292274003,27.406363729278034 -11.721933854678214,27.61514560357321 -11.238197802477345,27.815515637003625 -10.751038486359022,28.007412794916057 -10.260604299770057,28.190778623577252 -9.767044633714699,28.365557267979504 -9.270509831248427,28.53169548885461 -8.771151141682086,28.689142678891066 -8.269120674509967,28.83785087814957 -7.764571353075619,28.97777478867205 -7.2576568679900335,29.1088717882799 -6.7485316303159575,29.231101943557057 -6.237350724532768,29.34442802201417 -5.724269861296339,29.44881550342992 -5.2094453300079095,29.544232590366242 -4.693033951206931,29.630650217854132 -4.175193028801975,29.70804206224711 -3.656080302154415,29.776384549239662 -3.135853898029601,29.835656861048204 -2.6146722824297477,29.885840942752367 -2.0926942123237406,29.92692150779473 -1.5700786872883292,29.958886042637214 -1.0469849010750227,29.981724810572874 -0.5235721931185049,29.995430854691737 "/>
  

  <edge id="rt1" from="top" to="right" priority="1" numLanes="2" shape="1.83697019872103e-15,30.0 0.523572193118508,29.995430854691737 1.0469849010750325,29.981724810572874 1.570078687288319,29.958886042637214 2.0926942123237637,29.926921507794727 2.614672282429744,29.885840942752367 3.1358538980296036,29.8356568610482 3.656080302154425,29.77638454923966 4.175193028801964,29.70804206224711 4.693033951206928,29.630650217854132 5.209445330007912,29.544232590366242 5.724269861296348,29.44881550342992 6.237350724532783,29.344428022014167 6.748531630315954,29.231101943557057 7.257656867990037,29.108871788279895 7.764571353075629,28.977774788672047 8.269120674509974,28.837850878149567 8.77115114168211,28.689142678891063 9.270509831248424,28.531695488854606 9.767044633714702,28.3655572679795 10.260604299770065,28.19077862357725 10.751038486359011,28.007412794916053 11.238197802477366,27.81551563700362 11.721933854678218,27.615145603573207 12.202099292274012,27.406363729278027 12.678547852220989,27.189233611099496 13.151134403672323,26.96382138897501 13.619714992186404,26.730195725651033 14.084146883576725,26.488427785767808 14.544288607390113,26.238591214181874 15.000000000000004,25.980762113533157 15.45114224730163,25.715019021063366 15.897577926996153,25.441442884692776 16.339171050450815,25.160117038362717 16.77578710412241,24.87112717665125 17.207293090531383,24.574561328669752 17.633557568774197,24.27050983124842 18.054450694561453,23.959065301418782 18.46984425976975,23.640322608201654 18.879611731495125,23.314378843709125 19.283628290596184,22.981333293569335 19.681770869715223,22.64128740668316 20.073918190765745,22.294344764321824 20.45995080187496,21.94061104857511 20.83975111376992,21.58019401015953 21.21320343559643,21.21320343559642 21.580194010159538,20.839751113769914 21.940611048575118,20.459950801874953 22.29434476432183,20.073918190765742 22.641287406683162,19.681770869715216 22.981333293569346,19.283628290596173 23.31437884370913,18.879611731495118 23.64032260820166,18.469844259769744 23.95906530141879,18.054450694561446 24.270509831248425,17.63355756877419 24.574561328669756,17.20729309053138 24.871127176651257,16.7757871041224 25.16011703836272,16.33917105045081 25.441442884692783,15.897577926996147 25.71501902106337,15.451142247301622 25.98076211353316,14.999999999999995 26.238591214181877,14.544288607390104 26.48842778576781,14.084146883576718 26.73019572565104,13.619714992186397 26.963821388975013,13.151134403672316 27.1892336110995,12.678547852220982 27.40636372927803,12.202099292273997 27.61514560357321,11.721933854678209 27.815515637003625,11.23819780247735 28.007412794916057,10.751038486359002 28.190778623577252,10.260604299770057 28.365557267979504,9.767044633714693 28.53169548885461,9.270509831248415 28.689142678891066,8.771151141682095 28.837850878149567,8.269120674509969 28.97777478867205,7.76457135307562 29.1088717882799,7.257656867990022 29.231101943557057,6.748531630315946 29.34442802201417,6.237350724532775 29.44881550342992,5.724269861296339 29.544232590366242,5.209445330007904 29.630650217854132,4.693033951206919 29.70804206224711,4.175193028801956 29.776384549239662,3.6560803021544226 29.8356568610482,3.135853898029602 29.885840942752367,2.6146722824297353 29.92692150779473,2.0926942123237486 29.958886042637214,1.5700786872883103 29.981724810572874,1.0469849010750238 29.995430854691737,0.5235721931184995"/>

  <edge id="rb1" from="right" to="bottom" priority="1" numLanes="2" shape="30.0,0.0 29.995430854691737,-0.5235721931185054 29.981724810572874,-1.0469849010750294 29.958886042637214,-1.5700786872883152 29.926921507794727,-2.0926942123237593 29.885840942752367,-2.6146722824297455 29.8356568610482,-3.1358538980296045 29.77638454923966,-3.656080302154425 29.70804206224711,-4.175193028801964 29.630650217854132,-4.693033951206927 29.544232590366242,-5.20944533000791 29.44881550342992,-5.724269861296345 29.344428022014167,-6.2373507245327815 29.231101943557057,-6.74853163031595 29.108871788279895,-7.257656867990033 28.97777478867205,-7.764571353075624 28.837850878149567,-8.269120674509976 28.689142678891063,-8.771151141682104 28.531695488854606,-9.270509831248424 28.3655572679795,-9.767044633714702 28.19077862357725,-10.260604299770064 28.007412794916053,-10.751038486359008 27.81551563700362,-11.238197802477362 27.615145603573207,-11.721933854678214 27.406363729278027,-12.202099292274008 27.1892336110995,-12.678547852220987 26.96382138897501,-13.151134403672323 26.730195725651036,-13.619714992186404 26.488427785767808,-14.084146883576723 26.238591214181874,-14.544288607390111 25.980762113533157,-15.0 25.715019021063366,-15.451142247301629 25.44144288469278,-15.897577926996151 25.160117038362717,-16.339171050450815 24.87112717665125,-16.775787104122408 24.574561328669756,-17.207293090531383 24.27050983124842,-17.633557568774197 23.959065301418786,-18.054450694561453 23.640322608201657,-18.46984425976975 23.31437884370913,-18.879611731495125 22.98133329356934,-19.28362829059618 22.64128740668316,-19.681770869715223 22.294344764321828,-20.073918190765745 21.94061104857511,-20.459950801874957 21.58019401015953,-20.83975111376992 21.21320343559642,-21.21320343559643 20.839751113769918,-21.580194010159534 20.459950801874953,-21.940611048575114 20.073918190765745,-22.29434476432183 19.68177086971522,-22.641287406683162 19.283628290596173,-22.981333293569342 18.87961173149512,-23.31437884370913 18.469844259769747,-23.64032260820166 18.054450694561446,-23.95906530141879 17.63355756877419,-24.270509831248425 17.207293090531383,-24.574561328669756 16.7757871041224,-24.871127176651253 16.339171050450812,-25.16011703836272 15.897577926996147,-25.44144288469278 15.451142247301625,-25.71501902106337 14.999999999999996,-25.98076211353316 14.544288607390106,-26.238591214181877 14.08414688357672,-26.48842778576781 13.619714992186399,-26.730195725651036 13.151134403672318,-26.96382138897501 12.678547852220984,-27.1892336110995 12.202099292274,-27.40636372927803 11.72193385467821,-27.61514560357321 11.238197802477352,-27.815515637003625 10.751038486359004,-28.007412794916053 10.260604299770058,-28.190778623577252 9.767044633714695,-28.365557267979504 9.270509831248418,-28.53169548885461 8.771151141682097,-28.689142678891066 8.26912067450997,-28.837850878149567 7.764571353075622,-28.97777478867205 7.257656867990024,-29.1088717882799 6.748531630315948,-29.231101943557057 6.237350724532777,-29.34442802201417 5.7242698612963405,-29.44881550342992 5.209445330007907,-29.544232590366242 4.693033951206921,-29.630650217854132 4.175193028801957,-29.70804206224711 3.656080302154425,-29.77638454923966 3.1358538980296036,-29.8356568610482 2.6146722824297375,-29.885840942752367 2.0926942123237504,-29.92692150779473 1.5700786872883123,-29.958886042637214 1.0469849010750258,-29.981724810572874 0.5235721931185013,-29.995430854691737 "/>

  <edge id="lb1" from="bottom" to="left" priority="1" numLanes="2" shape="1.83697019872103e-15,-30.0 -0.5235721931185043,-29.995430854691737 -1.0469849010750287,-29.981724810572874 -1.5700786872883152,-29.958886042637214 -2.0926942123237597,-29.926921507794727 -2.6146722824297406,-29.885840942752367 -3.1358538980296,-29.835656861048204 -3.656080302154421,-29.776384549239662 -4.175193028801961,-29.70804206224711 -4.693033951206925,-29.630650217854132 -5.2094453300079095,-29.544232590366242 -5.724269861296344,-29.44881550342992 -6.237350724532781,-29.34442802201417 -6.748531630315951,-29.231101943557057 -7.2576568679900335,-29.108871788279895 -7.764571353075626,-28.97777478867205 -8.269120674509972,-28.837850878149567 -8.771151141682104,-28.689142678891063 -9.27050983124842,-28.53169548885461 -9.767044633714699,-28.365557267979504 -10.260604299770062,-28.190778623577252 -10.751038486359008,-28.007412794916053 -11.238197802477362,-27.81551563700362 -11.721933854678213,-27.615145603573207 -12.202099292274008,-27.406363729278027 -12.67854785222098,-27.189233611099503 -13.151134403672325,-26.963821388975006 -13.6197149921864,-26.730195725651036 -14.084146883576727,-26.488427785767808 -14.54428860739011,-26.238591214181877 -15.000000000000007,-25.980762113533153 -15.451142247301629,-25.71501902106337 -15.897577926996144,-25.441442884692783 -16.339171050450812,-25.160117038362717 -16.775787104122415,-24.871127176651246 -17.207293090531383,-24.574561328669752 -17.63355756877419,-24.270509831248425 -18.054450694561453,-23.959065301418782 -18.469844259769747,-23.64032260820166 -18.879611731495128,-23.314378843709125 -19.28362829059618,-22.98133329356934 -19.681770869715216,-22.641287406683162 -20.073918190765745,-22.294344764321828 -20.45995080187496,-21.940611048575107 -20.83975111376992,-21.58019401015953 -21.213203435596423,-21.213203435596427 -21.580194010159534,-20.839751113769914 -21.940611048575114,-20.459950801874957 -22.29434476432183,-20.073918190765742 -22.641287406683162,-19.68177086971522 -22.981333293569346,-19.283628290596173 -23.31437884370913,-18.87961173149512 -23.640322608201657,-18.46984425976975 -23.95906530141879,-18.054450694561446 -24.27050983124842,-17.633557568774197 -24.57456132866975,-17.20729309053139 -24.87112717665125,-16.775787104122408 -25.160117038362724,-16.33917105045081 -25.44144288469278,-15.897577926996147 -25.715019021063366,-15.45114224730163 -25.98076211353316,-14.999999999999998 -26.23859121418188,-14.544288607390104 -26.48842778576781,-14.084146883576722 -26.730195725651033,-13.619714992186406 -26.96382138897501,-13.15113440367232 -27.1892336110995,-12.678547852220985 -27.40636372927803,-12.202099292274001 -27.61514560357321,-11.721933854678213 -27.815515637003625,-11.238197802477353 -28.007412794916053,-10.751038486359006 -28.190778623577252,-10.260604299770055 -28.365557267979504,-9.767044633714697 -28.531695488854606,-9.270509831248425 -28.689142678891066,-8.771151141682099 -28.83785087814957,-8.269120674509965 -28.97777478867205,-7.764571353075617 -29.108871788279895,-7.257656867990032 -29.231101943557054,-6.748531630315956 -29.34442802201417,-6.23735072453278 -29.44881550342992,-5.724269861296336 -29.544232590366242,-5.209445330007909 -29.63065021785413,-4.693033951206929 -29.70804206224711,-4.17519302880196 -29.77638454923966,-3.656080302154426 -29.835656861048204,-3.1358538980295987 -29.885840942752367,-2.614672282429746 -29.92692150779473,-2.092694212323752 -29.958886042637214,-1.5700786872883141 -29.981724810572874,-1.046984901075021 -29.995430854691737,-0.5235721931185031 "/>
  
  <roundabout edges="lt1 rt1 rb1 lb1"/>

  <edge id="ll1" from="left" to="leftl" priority="1" numLanes="2"/>
  <edge id="ll2" from="leftl" to="left" priority="1" numLanes="2"/>

  <edge id="tt1" from="topt" to="top" priority="1" numLanes="2"/>
  <edge id="tt2" from="top" to="topt" priority="1" numLanes="2"/>

  <edge id="rr1" from="right" to="rightr" priority="1" numLanes="2"/>
  <edge id="rr2" from="rightr" to="right" priority="1" numLanes="2"/>

  <edge id="bb1" from="bottomb" to="bottom" priority="1" numLanes="2"/>
  <edge id="bb2" from="bottom" to="bottomb" priority="1" numLanes="2"/>


</edges>
