<?xml version="1.0" encoding="UTF-8"?>

<!-- generated on Wed Sep 25 19:01:43 2019 by Eclipse SUMO netconvert Version 1.1.0
<configuration xmlns:xsi="http://www.w3.org/2001/XMLSchema-instance" xsi:noNamespaceSchemaLocation="http://sumo.dlr.de/xsd/netconvertConfiguration.xsd">

    <input>
        <node-files value="Roundabout4.nod.xml"/>
        <edge-files value="Roundabout4.edg.xml"/>
        <connection-files value="Roundabout4.con.xml"/>
    </input>

    <output>
        <output-file value="Roundabout4.net.xml"/>
    </output>

</configuration>
-->

<net version="1.1" junctionCornerDetail="5" limitTurnSpeed="5.50" xmlns:xsi="http://www.w3.org/2001/XMLSchema-instance" xsi:noNamespaceSchemaLocation="http://sumo.dlr.de/xsd/net_file.xsd">

    <location netOffset="100.00,100.00" convBoundary="0.00,0.00,200.00,200.00" origBoundary="-100.00,-100.00,100.00,100.00" projParameter="!"/>

    <edge id=":bottom_0" function="internal">
        <lane id=":bottom_0_0" index="0" speed="13.89" length="15.98" shape="107.70,76.00 103.21,74.64 99.96,74.19 96.70,74.65 92.22,76.03"/>
        <lane id=":bottom_0_1" index="1" speed="13.89" length="15.98" shape="107.80,72.69 103.25,71.45 99.99,71.03 96.72,71.45 92.17,72.70"/>
    </edge>
    <edge id=":bottom_2" function="internal">
        <lane id=":bottom_2_0" index="0" speed="8.66" length="13.13" shape="107.80,72.69 105.43,72.17 101.14,71.21 97.03,70.12 95.20,69.19"/>
    </edge>
    <edge id=":bottom_3" function="internal">
        <lane id=":bottom_3_0" index="0" speed="7.67" length="10.10" shape="107.80,72.69 105.93,72.17 102.74,71.21 99.73,70.12 98.40,69.19"/>
    </edge>
    <edge id=":bottom_4" function="internal">
        <lane id=":bottom_4_0" index="0" speed="9.28" length="0.95" shape="104.80,69.19 104.34,70.02"/>
    </edge>
    <edge id=":bottom_5" function="internal">
        <lane id=":bottom_5_0" index="0" speed="8.50" length="0.44" shape="101.60,69.19 101.47,69.61"/>
    </edge>
    <edge id=":bottom_6" function="internal">
        <lane id=":bottom_6_0" index="0" speed="9.28" length="13.71" shape="104.34,70.02 104.01,70.61 101.66,72.22 97.73,74.03 92.22,76.03"/>
    </edge>
    <edge id=":bottom_7" function="internal">
        <lane id=":bottom_7_0" index="0" speed="8.50" length="11.73" shape="101.47,69.61 101.01,71.01 99.26,72.75 96.33,74.43 92.22,76.03"/>
    </edge>
    <edge id=":bottomb_0" function="internal">
        <lane id=":bottomb_0_0" index="0" speed="3.65" length="4.67" shape="98.40,0.00 99.20,-1.20 100.00,-1.60 100.80,-1.20 101.60,0.00"/>
    </edge>
    <edge id=":left_0" function="internal">
        <lane id=":left_0_0" index="0" speed="13.89" length="15.98" shape="76.00,92.30 74.64,96.79 74.19,100.04 74.65,103.30 76.03,107.78"/>
        <lane id=":left_0_1" index="1" speed="13.89" length="15.98" shape="72.69,92.20 71.45,96.75 71.03,100.01 71.45,103.28 72.70,107.83"/>
    </edge>
    <edge id=":left_2" function="internal">
        <lane id=":left_2_0" index="0" speed="8.66" length="13.13" shape="72.69,92.20 72.17,94.57 71.21,98.86 70.12,102.97 69.19,104.80"/>
    </edge>
    <edge id=":left_3" function="internal">
        <lane id=":left_3_0" index="0" speed="7.67" length="10.10" shape="72.69,92.20 72.17,94.07 71.21,97.26 70.12,100.27 69.19,101.60"/>
    </edge>
    <edge id=":left_4" function="internal">
        <lane id=":left_4_0" index="0" speed="9.28" length="0.95" shape="69.19,95.20 70.02,95.66"/>
    </edge>
    <edge id=":left_5" function="internal">
        <lane id=":left_5_0" index="0" speed="9.28" length="13.71" shape="70.02,95.66 70.61,95.99 72.22,98.34 74.03,102.27 76.03,107.78"/>
    </edge>
    <edge id=":leftl_0" function="internal">
        <lane id=":leftl_0_0" index="0" speed="3.65" length="4.67" shape="0.00,101.60 -1.20,100.80 -1.60,100.00 -1.20,99.20 0.00,98.40"/>
    </edge>
    <edge id=":right_0" function="internal">
        <lane id=":right_0_0" index="0" speed="9.28" length="0.95" shape="130.81,104.80 129.98,104.34"/>
    </edge>
    <edge id=":right_1" function="internal">
        <lane id=":right_1_0" index="0" speed="8.50" length="0.44" shape="130.81,101.60 130.39,101.47"/>
    </edge>
    <edge id=":right_6" function="internal">
        <lane id=":right_6_0" index="0" speed="9.28" length="13.71" shape="129.98,104.34 129.39,104.01 127.78,101.66 125.97,97.73 123.97,92.22"/>
    </edge>
    <edge id=":right_7" function="internal">
        <lane id=":right_7_0" index="0" speed="8.50" length="11.73" shape="130.39,101.47 128.99,101.01 127.25,99.26 125.57,96.33 123.97,92.22"/>
    </edge>
    <edge id=":right_2" function="internal">
        <lane id=":right_2_0" index="0" speed="13.89" length="15.98" shape="124.00,107.70 125.36,103.21 125.81,99.96 125.35,96.70 123.97,92.22"/>
        <lane id=":right_2_1" index="1" speed="13.89" length="15.98" shape="127.31,107.80 128.55,103.25 128.97,99.99 128.55,96.72 127.30,92.17"/>
    </edge>
    <edge id=":right_4" function="internal">
        <lane id=":right_4_0" index="0" speed="8.66" length="13.13" shape="127.31,107.80 127.83,105.43 128.79,101.14 129.88,97.03 130.81,95.20"/>
    </edge>
    <edge id=":right_5" function="internal">
        <lane id=":right_5_0" index="0" speed="7.67" length="10.10" shape="127.31,107.80 127.83,105.93 128.79,102.74 129.88,99.73 130.81,98.40"/>
    </edge>
    <edge id=":rightr_0" function="internal">
        <lane id=":rightr_0_0" index="0" speed="3.65" length="4.67" shape="200.00,98.40 201.20,99.20 201.60,100.00 201.20,100.80 200.00,101.60"/>
    </edge>
    <edge id=":top_0" function="internal">
        <lane id=":top_0_0" index="0" speed="9.28" length="0.95" shape="95.20,130.81 95.66,129.98"/>
    </edge>
    <edge id=":top_1" function="internal">
        <lane id=":top_1_0" index="0" speed="8.50" length="0.44" shape="98.40,130.81 98.53,130.39"/>
    </edge>
    <edge id=":top_6" function="internal">
        <lane id=":top_6_0" index="0" speed="9.28" length="13.71" shape="95.66,129.98 95.99,129.39 98.34,127.78 102.27,125.97 107.78,123.97"/>
    </edge>
    <edge id=":top_7" function="internal">
        <lane id=":top_7_0" index="0" speed="8.50" length="11.73" shape="98.53,130.39 98.99,128.99 100.74,127.25 103.67,125.57 107.78,123.97"/>
    </edge>
    <edge id=":top_2" function="internal">
        <lane id=":top_2_0" index="0" speed="13.89" length="15.98" shape="92.30,124.00 96.79,125.36 100.04,125.81 103.30,125.35 107.78,123.97"/>
        <lane id=":top_2_1" index="1" speed="13.89" length="15.98" shape="92.20,127.31 96.75,128.55 100.01,128.97 103.28,128.55 107.83,127.30"/>
    </edge>
    <edge id=":top_4" function="internal">
        <lane id=":top_4_0" index="0" speed="8.66" length="13.13" shape="92.20,127.31 94.57,127.83 98.86,128.79 102.97,129.88 104.80,130.81"/>
    </edge>
    <edge id=":top_5" function="internal">
        <lane id=":top_5_0" index="0" speed="7.67" length="10.10" shape="92.20,127.31 94.07,127.83 97.26,128.79 100.27,129.88 101.60,130.81"/>
    </edge>
    <edge id=":topt_0" function="internal">
        <lane id=":topt_0_0" index="0" speed="3.65" length="4.67" shape="101.60,200.00 100.80,201.20 100.00,201.60 99.20,201.20 98.40,200.00"/>
    </edge>

    <edge id="bb1" from="bottomb" to="bottom" priority="1">
        <lane id="bb1_0" index="0" speed="13.89" length="69.19" shape="104.80,0.00 104.80,69.19"/>
        <lane id="bb1_1" index="1" speed="13.89" length="69.19" shape="101.60,0.00 101.60,69.19"/>
    </edge>
    <edge id="bb2" from="bottom" to="bottomb" priority="1">
        <lane id="bb2_0" index="0" speed="13.89" length="69.19" shape="95.20,69.19 95.20,0.00"/>
        <lane id="bb2_1" index="1" speed="13.89" length="69.19" shape="98.40,69.19 98.40,0.00"/>
    </edge>
    <edge id="lb1" from="bottom" to="left" priority="1" shape="100.00,70.00 99.48,70.00 98.95,70.02 98.43,70.04 97.91,70.07 97.39,70.11 96.86,70.16 96.34,70.22 95.82,70.29 95.31,70.37 94.79,70.46 94.28,70.55 93.76,70.66 93.25,70.77 92.74,70.89 92.24,71.02 91.73,71.16 91.23,71.31 90.73,71.47 90.23,71.63 89.74,71.81 89.25,71.99 88.76,72.18 88.28,72.38 87.80,72.59 87.32,72.81 86.85,73.04 86.38,73.27 85.92,73.51 85.46,73.76 85.00,74.02 84.55,74.28 84.10,74.56 83.66,74.84 83.22,75.13 82.79,75.43 82.37,75.73 81.95,76.04 81.53,76.36 81.12,76.69 80.72,77.02 80.32,77.36 79.93,77.71 79.54,78.06 79.16,78.42 78.79,78.79 78.42,79.16 78.06,79.54 77.71,79.93 77.36,80.32 77.02,80.72 76.69,81.12 76.36,81.53 76.04,81.95 75.73,82.37 75.43,82.79 75.13,83.22 74.84,83.66 74.56,84.10 74.28,84.55 74.02,85.00 73.76,85.46 73.51,85.92 73.27,86.38 73.04,86.85 72.81,87.32 72.59,87.80 72.38,88.28 72.18,88.76 71.99,89.25 71.81,89.74 71.63,90.23 71.47,90.73 71.31,91.23 71.16,91.73 71.02,92.24 70.89,92.74 70.77,93.25 70.66,93.76 70.55,94.28 70.46,94.79 70.37,95.31 70.29,95.82 70.22,96.34 70.16,96.86 70.11,97.39 70.07,97.91 70.04,98.43 70.02,98.95 70.00,99.48">
        <lane id="lb1_0" index="0" speed="13.89" length="26.31" shape="92.22,76.03 91.80,76.17 91.38,76.32 90.97,76.47 90.56,76.63 90.15,76.80 89.75,76.98 89.35,77.16 88.95,77.35 88.56,77.55 88.17,77.75 87.78,77.96 87.40,78.18 87.02,78.40 86.65,78.63 86.28,78.87 85.91,79.11 85.55,79.36 85.19,79.61 84.83,79.87 84.49,80.14 84.14,80.42 83.80,80.70 83.47,80.98 83.14,81.27 82.81,81.57 82.49,81.87 82.18,82.18 81.87,82.49 81.57,82.81 81.27,83.14 80.98,83.47 80.70,83.80 80.42,84.14 80.14,84.49 79.87,84.83 79.61,85.19 79.36,85.55 79.11,85.91 78.87,86.28 78.63,86.65 78.40,87.02 78.18,87.40 77.96,87.78 77.75,88.17 77.55,88.56 77.35,88.95 77.16,89.35 76.98,89.75 76.80,90.15 76.63,90.56 76.47,90.97 76.32,91.38 76.17,91.80 76.00,92.30"/>
        <lane id="lb1_1" index="1" speed="13.89" length="26.31" shape="92.17,72.70 91.70,72.84 91.22,72.99 90.75,73.15 90.29,73.31 89.82,73.49 89.36,73.67 88.90,73.86 88.45,74.06 88.00,74.26 87.55,74.47 87.11,74.70 86.67,74.92 86.23,75.16 85.80,75.40 85.37,75.66 84.95,75.92 84.53,76.18 84.12,76.46 83.71,76.74 83.31,77.02 82.91,77.32 82.52,77.62 82.13,77.93 81.74,78.24 81.37,78.57 81.00,78.89 80.63,79.23 80.27,79.57 79.92,79.92 79.57,80.27 79.23,80.63 78.89,81.00 78.57,81.37 78.24,81.74 77.93,82.13 77.62,82.52 77.32,82.91 77.02,83.31 76.74,83.71 76.46,84.12 76.18,84.53 75.92,84.95 75.66,85.37 75.40,85.80 75.16,86.23 74.92,86.67 74.70,87.11 74.47,87.55 74.26,88.00 74.06,88.45 73.86,88.90 73.67,89.36 73.49,89.82 73.31,90.29 73.15,90.75 72.99,91.22 72.84,91.70 72.69,92.20"/>
    </edge>
    <edge id="ll1" from="left" to="leftl" priority="1">
        <lane id="ll1_0" index="0" speed="13.89" length="69.19" shape="69.19,104.80 0.00,104.80"/>
        <lane id="ll1_1" index="1" speed="13.89" length="69.19" shape="69.19,101.60 0.00,101.60"/>
    </edge>
    <edge id="ll2" from="leftl" to="left" priority="1">
        <lane id="ll2_0" index="0" speed="13.89" length="69.19" shape="0.00,95.20 69.19,95.20"/>
        <lane id="ll2_1" index="1" speed="13.89" length="69.19" shape="0.00,98.40 69.19,98.40"/>
    </edge>
    <edge id="lt1" from="left" to="top" priority="1" shape="70.00,100.00 70.00,100.52 70.02,101.05 70.04,101.57 70.07,102.09 70.11,102.61 70.16,103.14 70.22,103.66 70.29,104.18 70.37,104.69 70.46,105.21 70.55,105.72 70.66,106.24 70.77,106.75 70.89,107.26 71.02,107.76 71.16,108.27 71.31,108.77 71.47,109.27 71.63,109.77 71.81,110.26 71.99,110.75 72.18,111.24 72.38,111.72 72.59,112.20 72.81,112.68 73.04,113.15 73.27,113.62 73.51,114.08 73.76,114.54 74.02,115.00 74.28,115.45 74.56,115.90 74.84,116.34 75.13,116.78 75.43,117.21 75.73,117.63 76.04,118.05 76.36,118.47 76.69,118.88 77.02,119.28 77.36,119.68 77.71,120.07 78.06,120.46 78.42,120.84 78.79,121.21 79.16,121.58 79.54,121.94 79.93,122.29 80.32,122.64 80.72,122.98 81.12,123.31 81.53,123.64 81.95,123.96 82.37,124.27 82.79,124.57 83.22,124.87 83.66,125.16 84.10,125.44 84.55,125.72 85.00,125.98 85.46,126.24 85.92,126.49 86.38,126.73 86.85,126.96 87.32,127.19 87.80,127.41 88.28,127.62 88.76,127.82 89.25,128.01 89.74,128.19 90.23,128.37 90.73,128.53 91.23,128.69 91.73,128.84 92.24,128.98 92.74,129.11 93.25,129.23 93.76,129.34 94.28,129.45 94.79,129.54 95.31,129.63 95.82,129.71 96.34,129.78 96.86,129.84 97.39,129.89 97.91,129.93 98.43,129.96 98.95,129.98 99.48,130.00">
        <lane id="lt1_0" index="0" speed="13.89" length="26.31" shape="76.03,107.78 76.17,108.20 76.32,108.62 76.47,109.03 76.63,109.44 76.80,109.85 76.98,110.25 77.16,110.65 77.35,111.05 77.55,111.44 77.75,111.83 77.96,112.22 78.18,112.60 78.40,112.98 78.63,113.35 78.87,113.72 79.11,114.09 79.36,114.45 79.61,114.81 79.87,115.17 80.14,115.51 80.42,115.86 80.70,116.20 80.98,116.53 81.27,116.86 81.57,117.19 81.87,117.51 82.18,117.82 82.49,118.13 82.81,118.43 83.14,118.73 83.47,119.02 83.80,119.30 84.14,119.58 84.49,119.86 84.83,120.13 85.19,120.39 85.55,120.64 85.91,120.89 86.28,121.13 86.65,121.37 87.02,121.60 87.40,121.82 87.78,122.04 88.17,122.25 88.56,122.45 88.95,122.65 89.35,122.84 89.75,123.02 90.15,123.20 90.56,123.37 90.97,123.53 91.38,123.68 91.80,123.83 92.30,124.00"/>
        <lane id="lt1_1" index="1" speed="13.89" length="26.31" shape="72.70,107.83 72.84,108.30 72.99,108.78 73.15,109.25 73.31,109.71 73.49,110.18 73.67,110.64 73.86,111.10 74.06,111.55 74.26,112.00 74.47,112.45 74.70,112.89 74.92,113.33 75.16,113.77 75.40,114.20 75.66,114.63 75.92,115.05 76.18,115.47 76.46,115.88 76.74,116.29 77.02,116.69 77.32,117.09 77.62,117.48 77.93,117.87 78.24,118.26 78.57,118.63 78.89,119.00 79.23,119.37 79.57,119.73 79.92,120.08 80.27,120.43 80.63,120.77 81.00,121.11 81.37,121.43 81.74,121.76 82.13,122.07 82.52,122.38 82.91,122.68 83.31,122.98 83.71,123.26 84.12,123.54 84.53,123.82 84.95,124.08 85.37,124.34 85.80,124.60 86.23,124.84 86.67,125.08 87.11,125.30 87.55,125.53 88.00,125.74 88.45,125.94 88.90,126.14 89.36,126.33 89.82,126.51 90.29,126.69 90.75,126.85 91.22,127.01 91.70,127.16 92.20,127.31"/>
    </edge>
    <edge id="rb1" from="right" to="bottom" priority="1" shape="130.00,100.00 130.00,99.48 129.98,98.95 129.96,98.43 129.93,97.91 129.89,97.39 129.84,96.86 129.78,96.34 129.71,95.82 129.63,95.31 129.54,94.79 129.45,94.28 129.34,93.76 129.23,93.25 129.11,92.74 128.98,92.24 128.84,91.73 128.69,91.23 128.53,90.73 128.37,90.23 128.19,89.74 128.01,89.25 127.82,88.76 127.62,88.28 127.41,87.80 127.19,87.32 126.96,86.85 126.73,86.38 126.49,85.92 126.24,85.46 125.98,85.00 125.72,84.55 125.44,84.10 125.16,83.66 124.87,83.22 124.57,82.79 124.27,82.37 123.96,81.95 123.64,81.53 123.31,81.12 122.98,80.72 122.64,80.32 122.29,79.93 121.94,79.54 121.58,79.16 121.21,78.79 120.84,78.42 120.46,78.06 120.07,77.71 119.68,77.36 119.28,77.02 118.88,76.69 118.47,76.36 118.05,76.04 117.63,75.73 117.21,75.43 116.78,75.13 116.34,74.84 115.90,74.56 115.45,74.28 115.00,74.02 114.54,73.76 114.08,73.51 113.62,73.27 113.15,73.04 112.68,72.81 112.20,72.59 111.72,72.38 111.24,72.18 110.75,71.99 110.26,71.81 109.77,71.63 109.27,71.47 108.77,71.31 108.27,71.16 107.76,71.02 107.26,70.89 106.75,70.77 106.24,70.66 105.72,70.55 105.21,70.46 104.69,70.37 104.18,70.29 103.66,70.22 103.14,70.16 102.61,70.11 102.09,70.07 101.57,70.04 101.05,70.02 100.52,70.00">
        <lane id="rb1_0" index="0" speed="13.89" length="26.31" shape="123.97,92.22 123.83,91.80 123.68,91.38 123.53,90.97 123.37,90.56 123.20,90.15 123.02,89.75 122.84,89.35 122.65,88.95 122.45,88.56 122.25,88.17 122.04,87.78 121.82,87.40 121.60,87.02 121.37,86.65 121.13,86.28 120.89,85.91 120.64,85.55 120.39,85.19 120.13,84.83 119.86,84.49 119.58,84.14 119.30,83.80 119.02,83.47 118.73,83.14 118.43,82.81 118.13,82.49 117.82,82.18 117.51,81.87 117.19,81.57 116.86,81.27 116.53,80.98 116.20,80.70 115.86,80.42 115.51,80.14 115.17,79.87 114.81,79.61 114.45,79.36 114.09,79.11 113.72,78.87 113.35,78.63 112.98,78.40 112.60,78.18 112.22,77.96 111.83,77.75 111.44,77.55 111.05,77.35 110.65,77.16 110.25,76.98 109.85,76.80 109.44,76.63 109.03,76.47 108.62,76.32 108.20,76.17 107.70,76.00"/>
        <lane id="rb1_1" index="1" speed="13.89" length="26.31" shape="127.30,92.17 127.16,91.70 127.01,91.22 126.85,90.75 126.69,90.29 126.51,89.82 126.33,89.36 126.14,88.90 125.94,88.45 125.74,88.00 125.53,87.55 125.30,87.11 125.08,86.67 124.84,86.23 124.60,85.80 124.34,85.37 124.08,84.95 123.82,84.53 123.54,84.12 123.26,83.71 122.98,83.31 122.68,82.91 122.38,82.52 122.07,82.13 121.76,81.74 121.43,81.37 121.11,81.00 120.77,80.63 120.43,80.27 120.08,79.92 119.73,79.57 119.37,79.23 119.00,78.89 118.63,78.57 118.26,78.24 117.87,77.93 117.48,77.62 117.09,77.32 116.69,77.02 116.29,76.74 115.88,76.46 115.47,76.18 115.05,75.92 114.63,75.66 114.20,75.40 113.77,75.16 113.33,74.92 112.89,74.70 112.45,74.47 112.00,74.26 111.55,74.06 111.10,73.86 110.64,73.67 110.18,73.49 109.71,73.31 109.25,73.15 108.78,72.99 108.30,72.84 107.80,72.69"/>
    </edge>
    <edge id="rr1" from="right" to="rightr" priority="1">
        <lane id="rr1_0" index="0" speed="13.89" length="69.19" shape="130.81,95.20 200.00,95.20"/>
        <lane id="rr1_1" index="1" speed="13.89" length="69.19" shape="130.81,98.40 200.00,98.40"/>
    </edge>
    <edge id="rr2" from="rightr" to="right" priority="1">
        <lane id="rr2_0" index="0" speed="13.89" length="69.19" shape="200.00,104.80 130.81,104.80"/>
        <lane id="rr2_1" index="1" speed="13.89" length="69.19" shape="200.00,101.60 130.81,101.60"/>
    </edge>
    <edge id="rt1" from="top" to="right" priority="1" shape="100.00,130.00 100.52,130.00 101.05,129.98 101.57,129.96 102.09,129.93 102.61,129.89 103.14,129.84 103.66,129.78 104.18,129.71 104.69,129.63 105.21,129.54 105.72,129.45 106.24,129.34 106.75,129.23 107.26,129.11 107.76,128.98 108.27,128.84 108.77,128.69 109.27,128.53 109.77,128.37 110.26,128.19 110.75,128.01 111.24,127.82 111.72,127.62 112.20,127.41 112.68,127.19 113.15,126.96 113.62,126.73 114.08,126.49 114.54,126.24 115.00,125.98 115.45,125.72 115.90,125.44 116.34,125.16 116.78,124.87 117.21,124.57 117.63,124.27 118.05,123.96 118.47,123.64 118.88,123.31 119.28,122.98 119.68,122.64 120.07,122.29 120.46,121.94 120.84,121.58 121.21,121.21 121.58,120.84 121.94,120.46 122.29,120.07 122.64,119.68 122.98,119.28 123.31,118.88 123.64,118.47 123.96,118.05 124.27,117.63 124.57,117.21 124.87,116.78 125.16,116.34 125.44,115.90 125.72,115.45 125.98,115.00 126.24,114.54 126.49,114.08 126.73,113.62 126.96,113.15 127.19,112.68 127.41,112.20 127.62,111.72 127.82,111.24 128.01,110.75 128.19,110.26 128.37,109.77 128.53,109.27 128.69,108.77 128.84,108.27 128.98,107.76 129.11,107.26 129.23,106.75 129.34,106.24 129.45,105.72 129.54,105.21 129.63,104.69 129.71,104.18 129.78,103.66 129.84,103.14 129.89,102.61 129.93,102.09 129.96,101.57 129.98,101.05 130.00,100.52">
        <lane id="rt1_0" index="0" speed="13.89" length="26.31" shape="107.78,123.97 108.20,123.83 108.62,123.68 109.03,123.53 109.44,123.37 109.85,123.20 110.25,123.02 110.65,122.84 111.05,122.65 111.44,122.45 111.83,122.25 112.22,122.04 112.60,121.82 112.98,121.60 113.35,121.37 113.72,121.13 114.09,120.89 114.45,120.64 114.81,120.39 115.17,120.13 115.51,119.86 115.86,119.58 116.20,119.30 116.53,119.02 116.86,118.73 117.19,118.43 117.51,118.13 117.82,117.82 118.13,117.51 118.43,117.19 118.73,116.86 119.02,116.53 119.30,116.20 119.58,115.86 119.86,115.51 120.13,115.17 120.39,114.81 120.64,114.45 120.89,114.09 121.13,113.72 121.37,113.35 121.60,112.98 121.82,112.60 122.04,112.22 122.25,111.83 122.45,111.44 122.65,111.05 122.84,110.65 123.02,110.25 123.20,109.85 123.37,109.44 123.53,109.03 123.68,108.62 123.83,108.20 124.00,107.70"/>
        <lane id="rt1_1" index="1" speed="13.89" length="26.31" shape="107.83,127.30 108.30,127.16 108.78,127.01 109.25,126.85 109.71,126.69 110.18,126.51 110.64,126.33 111.10,126.14 111.55,125.94 112.00,125.74 112.45,125.53 112.89,125.30 113.33,125.08 113.77,124.84 114.20,124.60 114.63,124.34 115.05,124.08 115.47,123.82 115.88,123.54 116.29,123.26 116.69,122.98 117.09,122.68 117.48,122.38 117.87,122.07 118.26,121.76 118.63,121.43 119.00,121.11 119.37,120.77 119.73,120.43 120.08,120.08 120.43,119.73 120.77,119.37 121.11,119.00 121.43,118.63 121.76,118.26 122.07,117.87 122.38,117.48 122.68,117.09 122.98,116.69 123.26,116.29 123.54,115.88 123.82,115.47 124.08,115.05 124.34,114.63 124.60,114.20 124.84,113.77 125.08,113.33 125.30,112.89 125.53,112.45 125.74,112.00 125.94,111.55 126.14,111.10 126.33,110.64 126.51,110.18 126.69,109.71 126.85,109.25 127.01,108.78 127.16,108.30 127.31,107.80"/>
    </edge>
    <edge id="tt1" from="topt" to="top" priority="1">
        <lane id="tt1_0" index="0" speed="13.89" length="69.19" shape="95.20,200.00 95.20,130.81"/>
        <lane id="tt1_1" index="1" speed="13.89" length="69.19" shape="98.40,200.00 98.40,130.81"/>
    </edge>
    <edge id="tt2" from="top" to="topt" priority="1">
        <lane id="tt2_0" index="0" speed="13.89" length="69.19" shape="104.80,130.81 104.80,200.00"/>
        <lane id="tt2_1" index="1" speed="13.89" length="69.19" shape="101.60,130.81 101.60,200.00"/>
    </edge>

    <junction id="bottom" type="priority" x="100.00" y="70.00" incLanes="rb1_0 rb1_1 bb1_0 bb1_1" intLanes=":bottom_0_0 :bottom_0_1 :bottom_2_0 :bottom_3_0 :bottom_6_0 :bottom_7_0" shape="107.64,77.67 107.86,71.05 107.01,70.65 106.74,70.38 106.55,70.04 106.44,69.65 106.40,69.19 93.60,69.19 93.45,70.04 93.26,70.38 92.99,70.65 92.65,70.87 92.14,71.05 92.25,77.71 95.47,76.62 97.91,75.98 100.00,75.76 102.09,75.98 104.53,76.62">
        <request index="0" response="000000" foes="110000" cont="0"/>
        <request index="1" response="000000" foes="110000" cont="0"/>
        <request index="2" response="000000" foes="110000" cont="0"/>
        <request index="3" response="000000" foes="110000" cont="0"/>
        <request index="4" response="101111" foes="101111" cont="1"/>
        <request index="5" response="001111" foes="011111" cont="1"/>
    </junction>
    <junction id="bottomb" type="priority" x="100.00" y="0.00" incLanes="bb2_0 bb2_1" intLanes=":bottomb_0_0" shape="100.00,0.00 93.60,0.00 100.00,0.00">
        <request index="0" response="0" foes="0" cont="0"/>
    </junction>
    <junction id="left" type="priority" x="70.00" y="100.00" incLanes="lb1_0 lb1_1 ll2_0 ll2_1" intLanes=":left_0_0 :left_0_1 :left_2_0 :left_3_0 :left_5_0" shape="71.05,107.86 77.71,107.75 76.62,104.53 75.98,102.09 75.76,100.00 75.98,97.91 76.62,95.47 77.67,92.36 71.05,92.14 70.65,92.99 70.38,93.26 70.04,93.45 69.65,93.56 69.19,93.60 69.19,106.40 70.04,106.55 70.38,106.74 70.65,107.01 70.87,107.35">
        <request index="0" response="00000" foes="10000" cont="0"/>
        <request index="1" response="00000" foes="10000" cont="0"/>
        <request index="2" response="00000" foes="10000" cont="0"/>
        <request index="3" response="00000" foes="10000" cont="0"/>
        <request index="4" response="01111" foes="01111" cont="1"/>
    </junction>
    <junction id="leftl" type="priority" x="0.00" y="100.00" incLanes="ll1_0 ll1_1" intLanes=":leftl_0_0" shape="0.00,100.00 0.00,106.40 0.00,100.00">
        <request index="0" response="0" foes="0" cont="0"/>
    </junction>
    <junction id="right" type="priority" x="130.00" y="100.00" incLanes="rr2_0 rr2_1 rt1_0 rt1_1" intLanes=":right_6_0 :right_7_0 :right_2_0 :right_2_1 :right_4_0 :right_5_0" shape="130.81,106.40 130.81,93.60 129.96,93.45 129.62,93.26 129.35,92.99 129.13,92.65 128.95,92.14 122.29,92.25 123.38,95.47 124.02,97.91 124.24,100.00 124.02,102.09 123.38,104.53 122.33,107.64 128.95,107.86 129.35,107.01 129.62,106.74 129.96,106.55 130.35,106.44">
        <request index="0" response="111110" foes="111110" cont="1"/>
        <request index="1" response="111100" foes="111101" cont="1"/>
        <request index="2" response="000000" foes="000011" cont="0"/>
        <request index="3" response="000000" foes="000011" cont="0"/>
        <request index="4" response="000000" foes="000011" cont="0"/>
        <request index="5" response="000000" foes="000011" cont="0"/>
    </junction>
    <junction id="rightr" type="priority" x="200.00" y="100.00" incLanes="rr1_0 rr1_1" intLanes=":rightr_0_0" shape="200.00,100.00 200.00,93.60 200.00,100.00">
        <request index="0" response="0" foes="0" cont="0"/>
    </junction>
    <junction id="top" type="priority" x="100.00" y="130.00" incLanes="tt1_0 tt1_1 lt1_0 lt1_1" intLanes=":top_6_0 :top_7_0 :top_2_0 :top_2_1 :top_4_0 :top_5_0" shape="93.60,130.81 106.40,130.81 106.55,129.96 106.74,129.62 107.01,129.35 107.35,129.13 107.86,128.95 107.75,122.29 104.53,123.38 102.09,124.02 100.00,124.24 97.91,124.02 95.47,123.38 92.36,122.33 92.14,128.95 92.99,129.35 93.26,129.62 93.45,129.96 93.56,130.35">
        <request index="0" response="111110" foes="111110" cont="1"/>
        <request index="1" response="111100" foes="111101" cont="1"/>
        <request index="2" response="000000" foes="000011" cont="0"/>
        <request index="3" response="000000" foes="000011" cont="0"/>
        <request index="4" response="000000" foes="000011" cont="0"/>
        <request index="5" response="000000" foes="000011" cont="0"/>
    </junction>
    <junction id="topt" type="priority" x="100.00" y="200.00" incLanes="tt2_0 tt2_1" intLanes=":topt_0_0" shape="100.00,200.00 106.40,200.00 100.00,200.00">
        <request index="0" response="0" foes="0" cont="0"/>
    </junction>

    <junction id=":bottom_6_0" type="internal" x="104.34" y="70.02" incLanes=":bottom_4_0 rb1_0 rb1_1" intLanes=":bottom_0_0 :bottom_0_1 :bottom_2_0 :bottom_3_0"/>
    <junction id=":bottom_7_0" type="internal" x="101.47" y="69.61" incLanes=":bottom_5_0 rb1_0 rb1_1" intLanes=":bottom_0_0 :bottom_0_1 :bottom_2_0 :bottom_3_0"/>
    <junction id=":left_5_0" type="internal" x="70.02" y="95.66" incLanes=":left_4_0 lb1_0 lb1_1" intLanes=":left_0_0 :left_0_1 :left_2_0 :left_3_0"/>
    <junction id=":right_6_0" type="internal" x="129.98" y="104.34" incLanes=":right_0_0 rt1_0 rt1_1" intLanes=":right_2_0 :right_2_1 :right_4_0 :right_5_0"/>
    <junction id=":right_7_0" type="internal" x="130.39" y="101.47" incLanes=":right_1_0 rt1_0 rt1_1" intLanes=":right_2_0 :right_2_1 :right_4_0 :right_5_0"/>
    <junction id=":top_6_0" type="internal" x="95.66" y="129.98" incLanes=":top_0_0 lt1_0 lt1_1" intLanes=":top_2_0 :top_2_1 :top_4_0 :top_5_0"/>
    <junction id=":top_7_0" type="internal" x="98.53" y="130.39" incLanes=":top_1_0 lt1_0 lt1_1" intLanes=":top_2_0 :top_2_1 :top_4_0 :top_5_0"/>

    <connection from="bb1" to="lb1" fromLane="0" toLane="0" via=":bottom_4_0" dir="l" state="m"/>
    <connection from="bb1" to="lb1" fromLane="1" toLane="0" via=":bottom_5_0" dir="l" state="m"/>
    <connection from="bb2" to="bb1" fromLane="1" toLane="1" via=":bottomb_0_0" dir="t" state="M"/>
    <connection from="lb1" to="lt1" fromLane="0" toLane="0" via=":left_0_0" dir="s" state="M"/>
    <connection from="lb1" to="lt1" fromLane="1" toLane="1" via=":left_0_1" dir="s" state="M"/>
    <connection from="lb1" to="ll1" fromLane="1" toLane="0" via=":left_2_0" dir="l" state="M"/>
    <connection from="lb1" to="ll1" fromLane="1" toLane="1" via=":left_3_0" dir="l" state="M"/>
    <connection from="ll1" to="ll2" fromLane="1" toLane="1" via=":leftl_0_0" dir="t" state="M"/>
    <connection from="ll2" to="lt1" fromLane="0" toLane="0" via=":left_4_0" dir="l" state="m"/>
    <connection from="lt1" to="rt1" fromLane="0" toLane="0" via=":top_2_0" dir="s" state="M"/>
    <connection from="lt1" to="rt1" fromLane="1" toLane="1" via=":top_2_1" dir="s" state="M"/>
    <connection from="lt1" to="tt2" fromLane="1" toLane="0" via=":top_4_0" dir="l" state="M"/>
    <connection from="lt1" to="tt2" fromLane="1" toLane="1" via=":top_5_0" dir="l" state="M"/>
    <connection from="rb1" to="lb1" fromLane="0" toLane="0" via=":bottom_0_0" dir="s" state="M"/>
    <connection from="rb1" to="lb1" fromLane="1" toLane="1" via=":bottom_0_1" dir="s" state="M"/>
    <connection from="rb1" to="bb2" fromLane="1" toLane="0" via=":bottom_2_0" dir="l" state="M"/>
    <connection from="rb1" to="bb2" fromLane="1" toLane="1" via=":bottom_3_0" dir="l" state="M"/>
    <connection from="rr1" to="rr2" fromLane="1" toLane="1" via=":rightr_0_0" dir="t" state="M"/>
    <connection from="rr2" to="rb1" fromLane="0" toLane="0" via=":right_0_0" dir="l" state="m"/>
    <connection from="rr2" to="rb1" fromLane="1" toLane="0" via=":right_1_0" dir="l" state="m"/>
    <connection from="rt1" to="rb1" fromLane="0" toLane="0" via=":right_2_0" dir="s" state="M"/>
    <connection from="rt1" to="rb1" fromLane="1" toLane="1" via=":right_2_1" dir="s" state="M"/>
    <connection from="rt1" to="rr1" fromLane="1" toLane="0" via=":right_4_0" dir="l" state="M"/>
    <connection from="rt1" to="rr1" fromLane="1" toLane="1" via=":right_5_0" dir="l" state="M"/>
    <connection from="tt1" to="rt1" fromLane="0" toLane="0" via=":top_0_0" dir="l" state="m"/>
    <connection from="tt1" to="rt1" fromLane="1" toLane="0" via=":top_1_0" dir="l" state="m"/>
    <connection from="tt2" to="tt1" fromLane="1" toLane="1" via=":topt_0_0" dir="t" state="M"/>

    <connection from=":bottom_0" to="lb1" fromLane="0" toLane="0" dir="s" state="M"/>
    <connection from=":bottom_0" to="lb1" fromLane="1" toLane="1" dir="s" state="M"/>
    <connection from=":bottom_2" to="bb2" fromLane="0" toLane="0" dir="l" state="M"/>
    <connection from=":bottom_3" to="bb2" fromLane="0" toLane="1" dir="l" state="M"/>
    <connection from=":bottom_4" to="lb1" fromLane="0" toLane="0" via=":bottom_6_0" dir="l" state="m"/>
    <connection from=":bottom_6" to="lb1" fromLane="0" toLane="0" dir="l" state="M"/>
    <connection from=":bottom_5" to="lb1" fromLane="0" toLane="0" via=":bottom_7_0" dir="l" state="m"/>
    <connection from=":bottom_7" to="lb1" fromLane="0" toLane="0" dir="l" state="M"/>
    <connection from=":bottomb_0" to="bb1" fromLane="0" toLane="1" dir="t" state="M"/>
    <connection from=":left_0" to="lt1" fromLane="0" toLane="0" dir="s" state="M"/>
    <connection from=":left_0" to="lt1" fromLane="1" toLane="1" dir="s" state="M"/>
    <connection from=":left_2" to="ll1" fromLane="0" toLane="0" dir="l" state="M"/>
    <connection from=":left_3" to="ll1" fromLane="0" toLane="1" dir="l" state="M"/>