<?xml version="1.0" encoding="UTF-8"?>

<!-- generated on Wed Sep 25 11:36:12 2019 by Eclipse SUMO netconvert Version 1.1.0
<configuration xmlns:xsi="http://www.w3.org/2001/XMLSchema-instance" xsi:noNamespaceSchemaLocation="http://sumo.dlr.de/xsd/netconvertConfiguration.xsd">

    <input>
        <node-files value="T-junction.nod.xml"/>
        <edge-files value="T-junction.edg.xml"/>
    </input>

    <output>
        <output-file value="T-junction.net.xml"/>
    </output>

</configuration>
-->

<net version="1.1" junctionCornerDetail="5" limitTurnSpeed="5.50" xmlns:xsi="http://www.w3.org/2001/XMLSchema-instance" xsi:noNamespaceSchemaLocation="http://sumo.dlr.de/xsd/net_file.xsd">

    <location netOffset="500.00,500.00" convBoundary="0.00,0.00,1000.00,500.00" origBoundary="-500.00,-500.00,500.00,0.00" projParameter="!"/>

    <edge id=":0_0" function="internal">
        <lane id=":0_0_0" index="0" speed="13.89" length="20.80" shape="510.40,504.80 489.60,504.80"/>
        <lane id=":0_0_1" index="1" speed="13.89" length="20.80" shape="510.40,501.60 489.60,501.60"/>
    </edge>
    <edge id=":0_2" function="internal">
        <lane id=":0_2_0" index="0" speed="9.26" length="6.96" shape="510.40,501.60 505.15,500.85 503.73,500.00"/>
    </edge>
    <edge id=":0_3" function="internal">
        <lane id=":0_3_0" index="0" speed="3.65" length="2.34" shape="510.40,501.60 509.20,500.80 508.80,500.00"/>
    </edge>
    <edge id=":0_12" function="internal">
        <lane id=":0_12_0" index="0" speed="9.26" length="12.40" shape="503.73,500.00 501.40,498.60 499.15,494.85 498.40,489.60"/>
    </edge>
    <edge id=":0_13" function="internal">
        <lane id=":0_13_0" index="0" speed="3.65" length="2.34" shape="508.80,500.00 509.20,499.20 510.40,498.40"/>
    </edge>
    <edge id=":0_4" function="internal">
        <lane id=":0_4_0" index="0" speed="6.51" length="9.03" shape="504.80,489.60 505.15,492.05 506.20,493.80 507.95,494.85 510.40,495.20"/>
    </edge>
    <edge id=":0_5" function="internal">
        <lane id=":0_5_0" index="0" speed="8.00" length="14.19" shape="501.60,489.60 502.15,493.45 503.80,496.20 506.55,497.85 510.40,498.40"/>
    </edge>
    <edge id=":0_6" function="internal">
        <lane id=":0_6_0" index="0" speed="9.26" length="19.35" shape="501.60,489.60 500.85,494.85 498.60,498.60 494.85,500.85 489.60,501.60"/>
    </edge>
    <edge id=":0_7" function="internal">
        <lane id=":0_7_0" index="0" speed="3.65" length="2.34" shape="501.60,489.60 500.80,490.80 500.00,491.20"/>
    </edge>
    <edge id=":0_14" function="internal">
        <lane id=":0_14_0" index="0" speed="3.65" length="2.34" shape="500.00,491.20 499.20,490.80 498.40,489.60"/>
    </edge>
    <edge id=":0_8" function="internal">
        <lane id=":0_8_0" index="0" speed="6.51" length="9.03" shape="489.60,495.20 492.05,494.85 493.80,493.80 494.85,492.05 495.20,489.60"/>
    </edge>
    <edge id=":0_9" function="internal">
        <lane id=":0_9_0" index="0" speed="13.89" length="20.80" shape="489.60,495.20 510.40,495.20"/>
        <lane id=":0_9_1" index="1" speed="13.89" length="20.80" shape="489.60,498.40 510.40,498.40"/>
    </edge>
    <edge id=":0_11" function="internal">
        <lane id=":0_11_0" index="0" speed="3.65" length="2.34" shape="489.60,498.40 490.80,499.20 491.20,500.00"/>
    </edge>
    <edge id=":0_15" function="internal">
        <lane id=":0_15_0" index="0" speed="3.65" length="2.34" shape="491.20,500.00 490.80,500.80 489.60,501.60"/>
    </edge>
    <edge id=":1_0" function="internal">
        <lane id=":1_0_0" index="0" speed="3.65" length="4.67" shape="0.00,501.60 -1.20,500.80 -1.60,500.00 -1.20,499.20 0.00,498.40"/>
    </edge>
    <edge id=":2_0" function="internal">
        <lane id=":2_0_0" index="0" speed="3.65" length="4.67" shape="1000.00,498.40 1001.20,499.20 1001.60,500.00 1001.20,500.80 1000.00,501.60"/>
    </edge>
    <edge id=":3_0" function="internal">
        <lane id=":3_0_0" index="0" speed="3.65" length="4.67" shape="498.40,0.00 499.20,-1.20 500.00,-1.60 500.80,-1.20 501.60,0.00"/>
    </edge>

    <edge id="1o" from="0" to="1" priority="1">
        <lane id="1o_0" index="0" speed="13.89" length="489.60" shape="489.60,504.80 0.00,504.80"/>
        <lane id="1o_1" index="1" speed="13.89" length="489.60" shape="489.60,501.60 0.00,501.60"/>
    </edge>
    <edge id="2o" from="0" to="2" priority="1">
        <lane id="2o_0" index="0" speed="13.89" length="489.60" shape="510.40,495.20 1000.00,495.20"/>
        <lane id="2o_1" index="1" speed="13.89" length="489.60" shape="510.40,498.40 1000.00,498.40"/>
    </edge>
    <edge id="3o" from="0" to="3" priority="1">
        <lane id="3o_0" index="0" speed="13.89" length="489.60" shape="495.20,489.60 495.20,0.00"/>
        <lane id="3o_1" index="1" speed="13.89" length="489.60" shape="498.40,489.60 498.40,0.00"/>
    </edge>
    <edge id="o1" from="1" to="0" priority="1">
        <lane id="o1_0" index="0" speed="13.89" length="489.60" shape="0.00,495.20 489.60,495.20"/>
        <lane id="o1_1" index="1" speed="13.89" length="489.60" shape="0.00,498.40 489.60,498.40"/>
    </edge>
    <edge id="o2" from="2" to="0" priority="1">
        <lane id="o2_0" index="0" speed="13.89" length="489.60" shape="1000.00,504.80 510.40,504.80"/>
        <lane id="o2_1" index="1" speed="13.89" length="489.60" shape="1000.00,501.60 510.40,501.60"/>
    </edge>
    <edge id="o3" from="3" to="0" priority="1">
        <lane id="o3_0" index="0" speed="13.89" length="489.60" shape="504.80,0.00 504.80,489.60"/>
        <lane id="o3_1" index="1" speed="13.89" length="489.60" shape="501.60,0.00 501.60,489.60"/>
    </edge>

    <tlLogic id="0" type="static" programID="0" offset="0">
        <phase duration="42" state="GGggrrrrGGGg"/>
        <phase duration="3"  state="yyyyrrrryyyy"/>
        <phase duration="42" state="rrrrGGGgGrrr"/>
        <phase duration="3"  state="rrrryyyyyrrr"/>
    </tlLogic>

    <junction id="0" type="traffic_light" x="500.00" y="500.00" incLanes="o2_0 o2_1 o3_0 o3_1 o1_0 o1_1" intLanes=":0_0_0 :0_0_1 :0_12_0 :0_13_0 :0_4_0 :0_5_0 :0_6_0 :0_14_0 :0_8_0 :0_9_0 :0_9_1 :0_15_0" shape="510.40,506.40 510.40,493.60 508.18,493.16 507.40,492.60 506.84,491.82 506.51,490.82 506.40,489.60 493.60,489.60 493.16,491.82 492.60,492.60 491.82,493.16 490.82,493.49 489.60,493.60 489.60,506.40">
        <request index="0"  response="000000000000" foes="100001000000" cont="0"/>
        <request index="1"  response="000000000000" foes="100001000000" cont="0"/>
        <request index="2"  response="011000000000" foes="011011000000" cont="1"/>
        <request index="3"  response="011000110000" foes="011000110000" cont="1"/>
        <request index="4"  response="011000000000" foes="011000001000" cont="0"/>
        <request index="5"  response="011000000000" foes="011000001000" cont="0"/>
        <request index="6"  response="011000000111" foes="111000000111" cont="0"/>
        <request index="7"  response="000000000100" foes="000000000100" cont="1"/>
        <request index="8"  response="000000000000" foes="000000000000" cont="0"/>
        <request index="9"  response="000000000000" foes="000001111100" cont="0"/>
        <request index="10" response="000000000000" foes="000001111100" cont="0"/>
        <request index="11" response="000001000011" foes="000001000011" cont="1"/>
    </junction>
    <junction id="1" type="priority" x="0.00" y="500.00" incLanes="1o_0 1o_1" intLanes=":1_0_0" shape="0.00,500.00 0.00,506.40 0.00,500.00">
        <request index="0" response="0" foes="0" cont="0"/>
    </junction>
    <junction id="2" type="priority" x="1000.00" y="500.00" incLanes="2o_0 2o_1" intLanes=":2_0_0" shape="1000.00,500.00 1000.00,493.60 1000.00,500.00">
        <request index="0" response="0" foes="0" cont="0"/>
    </junction>
    <junction id="3" type="priority" x="500.00" y="0.00" incLanes="3o_0 3o_1" intLanes=":3_0_0" shape="500.00,0.00 493.60,0.00 500.00,0.00">
        <request index="0" response="0" foes="0" cont="0"/>
    </junction>

    <junction id=":0_12_0" type="internal" x="503.73" y="500.00" incLanes=":0_2_0 o1_0 o1_1" intLanes=":0_6_0 :0_7_0 :0_8_0 :0_9_0 :0_9_1"/>
    <junction id=":0_13_0" type="internal" x="508.80" y="500.00" incLanes=":0_3_0 o1_0 o1_1 o3_0 o3_1" intLanes=":0_4_0 :0_5_0 :0_9_0 :0_9_1"/>
    <junction id=":0_14_0" type="internal" x="500.00" y="491.20" incLanes=":0_7_0 o1_0 o2_1" intLanes=":0_2_0 :0_8_0"/>
    <junction id=":0_15_0" type="internal" x="491.20" y="500.00" incLanes=":0_11_0 o2_0 o2_1 o3_1" intLanes=":0_0_0 :0_0_1 :0_6_0"/>

    <connection from="1o" to="o1" fromLane="1" toLane="1" via=":1_0_0" dir="t" state="M"/>
    <connection from="2o" to="o2" fromLane="1" toLane="1" via=":2_0_0" dir="t" state="M"/>
    <connection from="3o" to="o3" fromLane="1" toLane="1" via=":3_0_0" dir="t" state="M"/>
    <connection from="o1" to="3o" fromLane="0" toLane="0" via=":0_8_0" tl="0" linkIndex="8" dir="r" state="O"/>
    <connection from="o1" to="2o" fromLane="0" toLane="0" via=":0_9_0" tl="0" linkIndex="9" dir="s" state="O"/>
    <connection from="o1" to="2o" fromLane="1" toLane="1" via=":0_9_1" tl="0" linkIndex="10" dir="s" state="O"/>
    <connection from="o1" to="1o" fromLane="1" toLane="1" via=":0_11_0" tl="0" linkIndex="11" dir="t" state="o"/>
    <connection from="o2" to="1o" fromLane="0" toLane="0" via=":0_0_0" tl="0" linkIndex="0" dir="s" state="O"/>
    <connection from="o2" to="1o" fromLane="1" toLane="1" via=":0_0_1" tl="0" linkIndex="1" dir="s" state="O"/>
    <connection from="o2" to="3o" fromLane="1" toLane="1" via=":0_2_0" tl="0" linkIndex="2" dir="l" state="o"/>
    <connection from="o2" to="2o" fromLane="1" toLane="1" via=":0_3_0" tl="0" linkIndex="3" dir="t" state="o"/>
    <connection from="o3" to="2o" fromLane="0" toLane="0" via=":0_4_0" tl="0" linkIndex="4" dir="r" state="o"/>
    <connection from="o3" to="2o" fromLane="1" toLane="1" via=":0_5_0" tl="0" linkIndex="5" dir="r" state="o"/>
    <connection from="o3" to="1o" fromLane="1" toLane="1" via=":0_6_0" tl="0" linkIndex="6" dir="l" state="o"/>
    <connection from="o3" to="3o" fromLane="1" toLane="1" via=":0_7_0" tl="0" linkIndex="7" dir="t" state="o"/>

    <connection from=":0_0" to="1o" fromLane="0" toLane="0" dir="s" state="M"/>
    <connection from=":0_0" to="1o" fromLane="1" toLane="1" dir="s" state="M"/>
    <connection from=":0_2" to="3o" fromLane="0" toLane="1" via=":0_12_0" dir="l" state="m"/>
    <connection from=":0_12" to="3o" fromLane="0" toLane="1" dir="l" state="M"/>
    <connection from=":0_3" to="2o" fromLane="0" toLane="1" via=":0_13_0" dir="t" state="m"/>
    <connection from=":0_13" to="2o" fromLane="0" toLane="1" dir="t" state="M"/>
    <connection from=":0_4" to="2o" fromLane="0" toLane="0" dir="r" state="M"/>
    <connection from=":0_5" to="2o" fromLane="0" toLane="1" dir="r" state="M"/>
    <connection from=":0_6" to="1o" fromLane="0" toLane="1" dir="l" state="M"/>
    <connection from=":0_7" to="3o" fromLane="0" toLane="1" via=":0_14_0" dir="t" state="m"/>
    <connection from=":0_14" to="3o" fromLane="0" toLane="1" dir="t" state="M"/>
    <connection from=":0_8" to="3o" fromLane="0" toLane="0" dir="r" state="M"/>
    <connection from=":0_9" to="2o" fromLane="0" toLane="0" dir="s" state="M"/>
    <connection from=":0_9" to="2o" fromLane="1" toLane="1" dir="s" state="M"/>
    <connection from=":0_11" to="1o" fromLane="0" toLane="1" via=":0_15_0" dir="t" state="m"/>
    <connection from=":0_15" to="1o" fromLane="0" toLane="1" dir="t" state="M"/>
    <connection from=":1_0" to="o1" fromLane="0" toLane="1" dir="t" state="M"/>
    <connection from=":2_0" to="o2" fromLane="0" toLane="1" dir="t" state="M"/>
    <connection from=":3_0" to="o3" fromLane="0" toLane="1" dir="t" state="M"/>

</net>
